
 ===================================================
  XFOIL Version 6.99
  Copyright (C) 2000   Mark Drela, Harold Youngren

  This software comes with ABSOLUTELY NO WARRANTY,
    subject to the GNU General Public License.

  Caveat computor
 ===================================================

 File  xfoil.def  not found

   QUIT    Exit program

  .OPER    Direct operating point(s)
  .MDES    Complex mapping design routine
  .QDES    Surface speed design routine
  .GDES    Geometry design routine

   SAVE f  Write airfoil to labeled coordinate file
   PSAV f  Write airfoil to plain coordinate file
   ISAV f  Write airfoil to ISES coordinate file
   MSAV f  Write airfoil to MSES coordinate file
   REVE    Reverse written-airfoil node ordering

   LOAD f  Read buffer airfoil from coordinate file
   NACA i  Set NACA 4,5-digit airfoil and buffer airfoil
   INTE    Set buffer airfoil by interpolating two airfoils
   NORM    Buffer airfoil normalization toggle
   XYCM rr Change CM reference location, currently  0.25000 0.00000

   BEND    Display structural properties of current airfoil

   PCOP    Set current-airfoil panel nodes directly from buffer airfoil points
   PANE    Set current-airfoil panel nodes ( 160 ) based on curvature
  .PPAR    Show/change paneling

  .PLOP    Plotting options

   WDEF f  Write  current-settings file
   RDEF f  Reread current-settings file
   NAME s  Specify new airfoil name
   NINC    Increment name version number

   Z       Zoom    | (available in all menus)
   U       Unzoom  | 

 XFOIL   c>  
 Labeled airfoil file.  Name:  ARA-D 10% AIRFOIL                               

 Number of input coordinate points:  51
 Counterclockwise ordering
 Max thickness =     0.100009  at x =   0.250
 Max camber    =     0.038573  at x =   0.350

  LE  x,y  =  -0.00012   0.00203  |   Chord =   1.00012
  TE  x,y  =   1.00000   0.00000  |

 Current airfoil nodes set from buffer airfoil nodes (  51 )

 XFOIL   c>  
 You are working with the buffer airfoil

.GDES   c>   Max thickness =     0.100009  at x =   0.250
 Max camber    =     0.038573  at x =   0.350

 New LE radius = 0.01238

.GDES   c>  
 Buffer airfoil is not identical to current airfoil

 XFOIL   c>  
.OPERi   c>   Current iteration limit:          10

Enter new iteration limit   i>  
.OPERi   c>  
 XFOIL   c>  
 XFOIL   c>  
    Present paneling parameters...
  N  i   Number of panel nodes       160
  P  r   Panel bunching parameter    1.000
  T  r   TE/LE panel density ratio   0.150
  R  r   Refined area/LE  panel density ratio   0.200
  XT rr  Top    side refined area x/c limits    1.000 1.000
  XB rr  Bottom side refined area x/c limits    1.000 1.000
  Z oom
  U nzoom

Change what ? (<cr> if nothing else)   c>  
Enter number of panel nodes   i>  
Change what ? (<cr> if nothing else)   c>  
 Blunt trailing edge.  Gap =  0.01500

 Maximum panel corner angle =  7.449   at  i,x,y  = 110   0.0030  -0.0074

    Present paneling parameters...
  N  i   Number of panel nodes       200
  P  r   Panel bunching parameter    1.000
  T  r   TE/LE panel density ratio   0.150
  R  r   Refined area/LE  panel density ratio   0.200
  XT rr  Top    side refined area x/c limits    1.000 1.000
  XB rr  Bottom side refined area x/c limits    1.000 1.000
  Z oom
  U nzoom

Change what ? (<cr> if nothing else)   c>  
 XFOIL   c>  
    Present paneling parameters...
  N  i   Number of panel nodes       200
  P  r   Panel bunching parameter    1.000
  T  r   TE/LE panel density ratio   0.150
  R  r   Refined area/LE  panel density ratio   0.200
  XT rr  Top    side refined area x/c limits    1.000 1.000
  XB rr  Bottom side refined area x/c limits    1.000 1.000
  Z oom
  U nzoom

Change what ? (<cr> if nothing else)   c>  
Enter TE/LE panel density ratio   r>  
Change what ? (<cr> if nothing else)   c>  
 Blunt trailing edge.  Gap =  0.01500

 Maximum panel corner angle =  8.084   at  i,x,y  = 109   0.0028  -0.0072

    Present paneling parameters...
  N  i   Number of panel nodes       200
  P  r   Panel bunching parameter    1.000
  T  r   TE/LE panel density ratio   1.000
  R  r   Refined area/LE  panel density ratio   0.200
  XT rr  Top    side refined area x/c limits    1.000 1.000
  XB rr  Bottom side refined area x/c limits    1.000 1.000
  Z oom
  U nzoom

Change what ? (<cr> if nothing else)   c>  
 XFOIL   c>  
 XFOIL   c>  
 XFOIL   c>  
.OPERi   c>  
.OPERi   c>  
 Sonic Cp =   -194.99      Sonic Q/Qinf =    15.555


.OPERi   c>  
 M  =    0.0587
 Re =    361099

.OPERv   c>   Min Cp will be written to polar save file

.OPERv   c>  
 Polar  1 newly created for accumulation
 Airfoil archived with polar: ARA-D 10% AIRFOIL                               

Enter  polar save filename  OR  <return> for no file   s>   plrset nipol,ipol()            7          13

 New polar save file available

Enter  polar dump filename  OR  <return> for no file   s>  
 Polar dump file will NOT be written

 Polar accumulation enabled

.OPERva   c>   Calculating unit vorticity distributions ...
 Calculating wake trajectory ...
 Calculating source influence matrix ...

 Solving BL system ...

 Initializing BL ...
    side            1  ...
 MRCHUE: Inverse mode at  60     Hk =   3.954
 MRCHUE: Inverse mode at  61     Hk =   4.464
 MRCHUE: Inverse mode at  62     Hk =   4.966
 MRCHUE: Inverse mode at  63     Hk =   5.460
 MRCHUE: Inverse mode at  64     Hk =   5.949
 MRCHUE: Inverse mode at  65     Hk =   6.433
 MRCHUE: Inverse mode at  66     Hk =   6.913
 MRCHUE: Inverse mode at  67     Hk =   7.378
 MRCHUE: Inverse mode at  68     Hk =   5.021
 MRCHUE: Inverse mode at  69     Hk =   3.519
    side            2  ...
 MRCHUE: Inverse mode at  30     Hk =   4.214
 MRCHUE: Inverse mode at  31     Hk =   5.137
 MRCHUE: Inverse mode at  32     Hk =   6.067
 MRCHUE: Inverse mode at  33     Hk =   6.994
 MRCHUE: Inverse mode at  34     Hk =   7.910
 MRCHUE: Inverse mode at  35     Hk =   8.806
 MRCHUE: Inverse mode at  36     Hk =   8.582
 MRCHUE: Inverse mode at  37     Hk =   4.917
 MRCHUE: Inverse mode at  38     Hk =   3.112
 MRCHUE: Inverse mode at 102     Hk =   1.591
 MRCHUE: Inverse mode at 103     Hk =   1.590
 MRCHUE: Inverse mode at 104     Hk =   1.588
 MRCHUE: Inverse mode at 105     Hk =   1.587
 MRCHUE: Inverse mode at 106     Hk =   1.585

 Side 1  free  transition at x/c =  0.6348   67
 Side 2  free  transition at x/c =  0.1819   36

   1   rms: 0.1734E+00   max: -.1143E+01   T at   67  1   RLX: 0.437
       a =  0.000      CL =  0.4513
      Cm = -0.0830     CD =  0.01193   =>   CDf =  0.00792    CDp =  0.00402

 MRCHDU: Convergence failed at  69  side 1    Res =  0.4970E+01
 MRCHDU: Convergence failed at  38  side 2    Res =  0.3320E+01
 Side 1  free  transition at x/c =  0.6642   69
 Side 2  free  transition at x/c =  0.1976   37

   2   rms: 0.1094E+00   max: -.8776E+00   T at   69  1   RLX: 0.570
       a =  0.000      CL =  0.4536
      Cm = -0.0842     CD =  0.01059   =>   CDf =  0.00771    CDp =  0.00289

 MRCHDU: Convergence failed at  72  side 1    Res =  0.2651E+01
 Side 1  free  transition at x/c =  0.7033   72
 Side 2  free  transition at x/c =  0.2145   39

   3   rms: 0.5921E-01   max: -.4807E+00   C at   39  2
       a =  0.000      CL =  0.4503
      Cm = -0.0831     CD =  0.01013   =>   CDf =  0.00700    CDp =  0.00313

 Side 1  free  transition at x/c =  0.7353   74
 Side 2  free  transition at x/c =  0.2429   40

   4   rms: 0.2466E-01   max: -.4018E+00   C at   40  2
       a =  0.000      CL =  0.4499
      Cm = -0.0831     CD =  0.01019   =>   CDf =  0.00675    CDp =  0.00344

 Side 1  free  transition at x/c =  0.7233   73
 Side 2  free  transition at x/c =  0.2298   40

   5   rms: 0.8132E-02   max: 0.1013E+00   D at   41  2
       a =  0.000      CL =  0.4493
      Cm = -0.0829     CD =  0.01031   =>   CDf =  0.00680    CDp =  0.00351

 Side 1  free  transition at x/c =  0.7267   74
 Side 2  free  transition at x/c =  0.2316   40

   6   rms: 0.1973E-02   max: -.3534E-01   D at   73  1
       a =  0.000      CL =  0.4495
      Cm = -0.0829     CD =  0.01029   =>   CDf =  0.00675    CDp =  0.00355

 Side 1  free  transition at x/c =  0.7263   74
 Side 2  free  transition at x/c =  0.2316   40

   7   rms: 0.1247E-03   max: 0.2066E-02   C at   74  1
       a =  0.000      CL =  0.4495
      Cm = -0.0829     CD =  0.01029   =>   CDf =  0.00674    CDp =  0.00356

 Side 1  free  transition at x/c =  0.7263   74
 Side 2  free  transition at x/c =  0.2316   40

   8   rms: 0.1348E-05   max: 0.9255E-05   D at   75  1
       a =  0.000      CL =  0.4495
      Cm = -0.0829     CD =  0.01029   =>   CDf =  0.00674    CDp =  0.00356
 plradd ia,ip,cpol            1           0  9.41703916E-02

 Point added to stored polar  1
 plradd ia,ip,cpol            1           0  9.41703916E-02
 Point written to save file  xfoil.polar                                     
 Dump file unspecified or not available
 Calculating wake trajectory ...
 Calculating source influence matrix ...

 Solving BL system ...

 Side 1  free  transition at x/c =  0.7263   74
 Side 2  free  transition at x/c =  0.2316   40

   1   rms: 0.6944E-01   max: 0.7703E+00   C at   40  2
       a = -0.250      CL =  0.4212
      Cm = -0.0830     CD =  0.01042   =>   CDf =  0.00673    CDp =  0.00368

 Side 1  free  transition at x/c =  0.7400   75
 Side 2  free  transition at x/c =  0.2077   38

   2   rms: 0.2165E-01   max: 0.3224E+00   D at   39  2
       a = -0.250      CL =  0.4209
      Cm = -0.0830     CD =  0.01035   =>   CDf =  0.00683    CDp =  0.00352

 Side 1  free  transition at x/c =  0.7441   75
 Side 2  free  transition at x/c =  0.2069   38

   3   rms: 0.2440E-02   max: 0.3776E-01   C at   38  2
       a = -0.250      CL =  0.4210
      Cm = -0.0830     CD =  0.01037   =>   CDf =  0.00674    CDp =  0.00363

 Side 1  free  transition at x/c =  0.7439   75
 Side 2  free  transition at x/c =  0.2061   38

   4   rms: 0.4558E-04   max: -.6714E-03   D at   39  2
       a = -0.250      CL =  0.4210
      Cm = -0.0830     CD =  0.01037   =>   CDf =  0.00675    CDp =  0.00362
 plradd ia,ip,cpol            2           0  9.41703916E-02

 Point added to stored polar  1
 plradd ia,ip,cpol            2           0  9.41703916E-02
 Point written to save file  xfoil.polar                                     
 Dump file unspecified or not available
 Calculating wake trajectory ...
 Calculating source influence matrix ...

 Solving BL system ...

 Side 1  free  transition at x/c =  0.7439   75
 Side 2  free  transition at x/c =  0.2061   38
 idif Ue xi dudx           1  0.12950008      1.85382366E-03   69.855659    
 Uenew xinew           2  9.73478146E-03  1.39355659E-04

   1   rms: 0.5455E-01   max: 0.3697E+00   C at   38  2
       a = -0.500      CL =  0.3925
      Cm = -0.0831     CD =  0.01043   =>   CDf =  0.00678    CDp =  0.00364

 Side 1  free  transition at x/c =  0.7577   75
 Side 2  free  transition at x/c =  0.1872   38

   2   rms: 0.3008E-01   max: -.3883E+00   D at   38  2
       a = -0.500      CL =  0.3924
      Cm = -0.0831     CD =  0.01040   =>   CDf =  0.00681    CDp =  0.00359

 Side 1  free  transition at x/c =  0.7609   75
 Side 2  free  transition at x/c =  0.1882   38

   3   rms: 0.4800E-02   max: 0.5934E-01   C at   38  2
       a = -0.500      CL =  0.3924
      Cm = -0.0831     CD =  0.01044   =>   CDf =  0.00674    CDp =  0.00370

 Side 1  free  transition at x/c =  0.7608   75
 Side 2  free  transition at x/c =  0.1869   38

   4   rms: 0.1674E-03   max: -.3811E-02   D at   39  2
       a = -0.500      CL =  0.3924
      Cm = -0.0831     CD =  0.01045   =>   CDf =  0.00676    CDp =  0.00369

 Side 1  free  transition at x/c =  0.7608   75
 Side 2  free  transition at x/c =  0.1868   38

   5   rms: 0.1402E-05   max: 0.1682E-04   D at    4  2
       a = -0.500      CL =  0.3924
      Cm = -0.0831     CD =  0.01045   =>   CDf =  0.00676    CDp =  0.00369
 plradd ia,ip,cpol            3           0  0.10424244    

 Point added to stored polar  1
 plradd ia,ip,cpol            3           0  0.10424244    
 Point written to save file  xfoil.polar                                     
 Dump file unspecified or not available
 Calculating wake trajectory ...
 Calculating source influence matrix ...

 Solving BL system ...

 Side 1  free  transition at x/c =  0.7608   75
 Side 2  free  transition at x/c =  0.1868   38

   1   rms: 0.5781E-01   max: -.3935E+00   D at   38  2
       a = -0.750      CL =  0.3639
      Cm = -0.0832     CD =  0.01059   =>   CDf =  0.00675    CDp =  0.00384

 Side 1  free  transition at x/c =  0.7745   76
 Side 2  free  transition at x/c =  0.1727   37

   2   rms: 0.3448E-01   max: -.3899E+00   D at   37  2
       a = -0.750      CL =  0.3638
      Cm = -0.0832     CD =  0.01046   =>   CDf =  0.00678    CDp =  0.00368

 Side 1  free  transition at x/c =  0.7777   76
 Side 2  free  transition at x/c =  0.1722   37

   3   rms: 0.5200E-02   max: -.6496E-01   D at   38  2
       a = -0.750      CL =  0.3639
      Cm = -0.0832     CD =  0.01053   =>   CDf =  0.00673    CDp =  0.00379

 Side 1  free  transition at x/c =  0.7777   76
 Side 2  free  transition at x/c =  0.1709   37

   4   rms: 0.3131E-03   max: -.6981E-02   D at   38  2
       a = -0.750      CL =  0.3639
      Cm = -0.0832     CD =  0.01053   =>   CDf =  0.00675    CDp =  0.00378

 Side 1  free  transition at x/c =  0.7777   76
 Side 2  free  transition at x/c =  0.1708   37

   5   rms: 0.3699E-05   max: -.4964E-04   D at   38  2
       a = -0.750      CL =  0.3639
      Cm = -0.0832     CD =  0.01053   =>   CDf =  0.00675    CDp =  0.00378
 plradd ia,ip,cpol            4           0  0.10424244    

 Point added to stored polar  1
 plradd ia,ip,cpol            4           0  0.10424244    
 Point written to save file  xfoil.polar                                     
 Dump file unspecified or not available
 Calculating wake trajectory ...
 Calculating source influence matrix ...

 Solving BL system ...

 Side 1  free  transition at x/c =  0.7777   76
 Side 2  free  transition at x/c =  0.1708   37

   1   rms: 0.5874E-01   max: 0.4013E+00   T at   37  2
       a = -1.000      CL =  0.3352
      Cm = -0.0832     CD =  0.01076   =>   CDf =  0.00675    CDp =  0.00401

 Side 1  free  transition at x/c =  0.7941   77
 Side 2  free  transition at x/c =  0.1578   36

   2   rms: 0.3995E-01   max: -.4295E+00   D at   36  2
       a = -1.000      CL =  0.3354
      Cm = -0.0834     CD =  0.01055   =>   CDf =  0.00673    CDp =  0.00382

 Side 1  free  transition at x/c =  0.7949   77
 Side 2  free  transition at x/c =  0.1582   36

   3   rms: 0.5498E-02   max: -.7226E-01   D at   37  2
       a = -1.000      CL =  0.3355
      Cm = -0.0834     CD =  0.01061   =>   CDf =  0.00671    CDp =  0.00389

 Side 1  free  transition at x/c =  0.7949   77
 Side 2  free  transition at x/c =  0.1569   36

   4   rms: 0.3360E-03   max: -.7939E-02   D at   37  2
       a = -1.000      CL =  0.3355
      Cm = -0.0834     CD =  0.01061   =>   CDf =  0.00673    CDp =  0.00388

 Side 1  free  transition at x/c =  0.7949   77
 Side 2  free  transition at x/c =  0.1568   36

   5   rms: 0.3732E-05   max: -.5750E-04   D at   37  2
       a = -1.000      CL =  0.3355
      Cm = -0.0834     CD =  0.01061   =>   CDf =  0.00673    CDp =  0.00388
 plradd ia,ip,cpol            5           0  7.21907150E-03

 Point added to stored polar  1
 plradd ia,ip,cpol            5           0  7.21907150E-03
 Point written to save file  xfoil.polar                                     
 Dump file unspecified or not available
 Calculating wake trajectory ...
 Calculating source influence matrix ...

 Solving BL system ...

 Side 1  free  transition at x/c =  0.7949   77
 Side 2  free  transition at x/c =  0.1568   36
 idif Ue xi dudx           1  0.16603370      2.61068344E-03   63.597790    
 Uenew xinew           2  5.22513352E-02  8.21590424E-04

   1   rms: 0.5673E-01   max: 0.4067E+00   T at   36  2
       a = -1.250      CL =  0.3067
      Cm = -0.0834     CD =  0.01084   =>   CDf =  0.00676    CDp =  0.00408

 MRCHDU: Convergence failed at  37  side 2    Res =  0.1392E+01
 MRCHDU: Convergence failed at  38  side 2    Res =  0.1745E+01
 MRCHDU: Convergence failed at  39  side 2    Res =  0.1214E+01
 MRCHDU: Convergence failed at  40  side 2    Res =  0.1302E+01
 MRCHDU: Convergence failed at  41  side 2    Res =  0.1355E+01
 MRCHDU: Convergence failed at  42  side 2    Res =  0.1524E+01
 MRCHDU: Convergence failed at  43  side 2    Res =  0.1640E+01
 MRCHDU: Convergence failed at  44  side 2    Res =  0.1734E+01
 MRCHDU: Convergence failed at  45  side 2    Res =  0.1810E+01
 MRCHDU: Convergence failed at  46  side 2    Res =  0.1903E+01
 MRCHDU: Convergence failed at  47  side 2    Res =  0.1973E+01
 MRCHDU: Convergence failed at  48  side 2    Res =  0.2067E+01
 MRCHDU: Convergence failed at  49  side 2    Res =  0.2148E+01
 MRCHDU: Convergence failed at  50  side 2    Res =  0.2261E+01
 MRCHDU: Convergence failed at  51  side 2    Res =  0.2790E+01
 MRCHDU: Convergence failed at  52  side 2    Res =  0.2918E+01
 MRCHDU: Convergence failed at  53  side 2    Res =  0.3062E+01
 MRCHDU: Convergence failed at  54  side 2    Res =  0.3198E+01
 MRCHDU: Convergence failed at  55  side 2    Res =  0.3348E+01
 MRCHDU: Convergence failed at  56  side 2    Res =  0.3501E+01
 MRCHDU: Convergence failed at  57  side 2    Res =  0.3663E+01
 MRCHDU: Convergence failed at  58  side 2    Res =  0.3826E+01
 MRCHDU: Convergence failed at  59  side 2    Res =  0.4012E+01
 MRCHDU: Convergence failed at  60  side 2    Res =  0.4195E+01
 MRCHDU: Convergence failed at  61  side 2    Res =  0.4373E+01
 MRCHDU: Convergence failed at  62  side 2    Res =  0.4564E+01
 MRCHDU: Convergence failed at  63  side 2    Res =  0.4760E+01
 MRCHDU: Convergence failed at  64  side 2    Res =  0.4955E+01
 MRCHDU: Convergence failed at  65  side 2    Res =  0.5186E+01
 MRCHDU: Convergence failed at  66  side 2    Res =  0.5393E+01
 MRCHDU: Convergence failed at  67  side 2    Res =  0.5617E+01
 MRCHDU: Convergence failed at  68  side 2    Res =  0.5849E+01
 MRCHDU: Convergence failed at  69  side 2    Res =  0.6089E+01
 MRCHDU: Convergence failed at  70  side 2    Res =  0.6336E+01
 MRCHDU: Convergence failed at  71  side 2    Res =  0.6579E+01
 MRCHDU: Convergence failed at  72  side 2    Res =  0.6832E+01
 MRCHDU: Convergence failed at  73  side 2    Res =  0.7154E+01
 MRCHDU: Convergence failed at  74  side 2    Res =  0.7437E+01
 MRCHDU: Convergence failed at  75  side 2    Res =  0.7753E+01
 MRCHDU: Convergence failed at  76  side 2    Res =  0.8119E+01
 MRCHDU: Convergence failed at  77  side 2    Res =  0.8536E+01
 MRCHDU: Convergence failed at  78  side 2    Res =  0.9034E+01
 MRCHDU: Convergence failed at  79  side 2    Res =  0.9580E+01
 MRCHDU: Convergence failed at  80  side 2    Res =  0.1016E+02
 MRCHDU: Convergence failed at  81  side 2    Res =  0.1091E+02
 MRCHDU: Convergence failed at  82  side 2    Res =  0.1196E+02
 MRCHDU: Convergence failed at  83  side 2    Res =  0.1411E+02
 MRCHDU: Convergence failed at  84  side 2    Res =  0.1686E+02
 MRCHDU: Convergence failed at  85  side 2    Res =  0.2110E+02
 MRCHDU: Convergence failed at  86  side 2    Res =  0.2786E+02
 MRCHDU: Convergence failed at  87  side 2    Res =  0.4476E+02
 MRCHDU: Convergence failed at  88  side 2    Res =  0.3711E+03
 MRCHDU: Convergence failed at  89  side 2    Res =  0.4512E+02
 MRCHDU: Convergence failed at  90  side 2    Res =  0.2041E+02
 MRCHDU: Convergence failed at  91  side 2    Res =  0.1452E+02
 MRCHDU: Convergence failed at  92  side 2    Res =  0.1174E+02
 MRCHDU: Convergence failed at  93  side 2    Res =  0.1016E+02
 MRCHDU: Convergence failed at  94  side 2    Res =  0.9186E+01
 MRCHDU: Convergence failed at  95  side 2    Res =  0.8571E+01
 MRCHDU: Convergence failed at  96  side 2    Res =  0.8159E+01
 MRCHDU: Convergence failed at  97  side 2    Res =  0.7867E+01
 MRCHDU: Convergence failed at  98  side 2    Res =  0.7662E+01
 MRCHDU: Convergence failed at  99  side 2    Res =  0.7508E+01
 MRCHDU: Convergence failed at 100  side 2    Res =  0.7385E+01
 MRCHDU: Convergence failed at 101  side 2    Res =  0.7268E+01
 MRCHDU: Convergence failed at 102  side 2    Res =  0.6671E+01
 Side 1  free  transition at x/c =  0.8123   78
 Side 2  free  transition at x/c =  0.1452   36

   2   rms: 0.2980E+00   max: -.1092E+01   D at   82  2   RLX: 0.458
       a = -1.250      CL =  0.1942
      Cm = -0.0475     CD =  0.00806   =>   CDf =  0.00309    CDp =  0.00497

 Side 1  free  transition at x/c =  0.8125   78
 Side 2  free  transition at x/c =  0.1416   36

   3   rms: 0.9395E-01   max: 0.6246E+00   D at  112  2
       a = -1.250      CL =  0.3074
      Cm = -0.0837     CD =  0.01092   =>   CDf =  0.00719    CDp =  0.00373

 Side 1  free  transition at x/c =  0.8124   78
 Side 2  free  transition at x/c =  0.1440   36

   4   rms: 0.8075E-02   max: -.1044E+00   D at  113  2
       a = -1.250      CL =  0.3073
      Cm = -0.0837     CD =  0.01070   =>   CDf =  0.00669    CDp =  0.00401

 Side 1  free  transition at x/c =  0.8124   78
 Side 2  free  transition at x/c =  0.1438   36

   5   rms: 0.5631E-03   max: -.1081E-01   D at  113  2
       a = -1.250      CL =  0.3073
      Cm = -0.0837     CD =  0.01069   =>   CDf =  0.00669    CDp =  0.00400

 Side 1  free  transition at x/c =  0.8124   78
 Side 2  free  transition at x/c =  0.1438   36

   6   rms: 0.4969E-05   max: -.1157E-03   D at  113  2
       a = -1.250      CL =  0.3073
      Cm = -0.0837     CD =  0.01069   =>   CDf =  0.00669    CDp =  0.00400
 plradd ia,ip,cpol            6           0  7.21907150E-03

 Point added to stored polar  1
 plradd ia,ip,cpol            6           0  7.21907150E-03
 Point written to save file  xfoil.polar                                     
 Dump file unspecified or not available
 Calculating wake trajectory ...
 Calculating source influence matrix ...

 Solving BL system ...

 Side 1  free  transition at x/c =  0.8124   78
 Side 2  free  transition at x/c =  0.1438   36

   1   rms: 0.5569E-01   max: 0.3977E+00   T at   36  2
       a = -1.500      CL =  0.2797
      Cm = -0.0841     CD =  0.01079   =>   CDf =  0.00669    CDp =  0.00410

 MRCHDU: Convergence failed at  36  side 2    Res =  0.3652E+01
 MRCHDU: Convergence failed at  37  side 2    Res =  0.1451E+01
 MRCHDU: Convergence failed at  38  side 2    Res =  0.1370E+01
 MRCHDU: Convergence failed at  39  side 2    Res =  0.1567E+01
 MRCHDU: Convergence failed at  40  side 2    Res =  0.1719E+01
 MRCHDU: Convergence failed at  41  side 2    Res =  0.1890E+01
 MRCHDU: Convergence failed at  42  side 2    Res =  0.2050E+01
 MRCHDU: Convergence failed at  43  side 2    Res =  0.2220E+01
 MRCHDU: Convergence failed at  44  side 2    Res =  0.2417E+01
 MRCHDU: Convergence failed at  45  side 2    Res =  0.2540E+01
 MRCHDU: Convergence failed at  46  side 2    Res =  0.2661E+01
 MRCHDU: Convergence failed at  47  side 2    Res =  0.2770E+01
 MRCHDU: Convergence failed at  48  side 2    Res =  0.2880E+01
 MRCHDU: Convergence failed at  49  side 2    Res =  0.3001E+01
 MRCHDU: Convergence failed at  50  side 2    Res =  0.3152E+01
 MRCHDU: Convergence failed at  51  side 2    Res =  0.3286E+01
 MRCHDU: Convergence failed at  52  side 2    Res =  0.3420E+01
 MRCHDU: Convergence failed at  53  side 2    Res =  0.3572E+01
 MRCHDU: Convergence failed at  54  side 2    Res =  0.3698E+01
 MRCHDU: Convergence failed at  55  side 2    Res =  0.3859E+01
 MRCHDU: Convergence failed at  56  side 2    Res =  0.4004E+01
 MRCHDU: Convergence failed at  57  side 2    Res =  0.4315E+01
 MRCHDU: Convergence failed at  58  side 2    Res =  0.4480E+01
 MRCHDU: Convergence failed at  59  side 2    Res =  0.4648E+01
 MRCHDU: Convergence failed at  60  side 2    Res =  0.4806E+01
 MRCHDU: Convergence failed at  61  side 2    Res =  0.4987E+01
 MRCHDU: Convergence failed at  62  side 2    Res =  0.5150E+01
 MRCHDU: Convergence failed at  63  side 2    Res =  0.5319E+01
 MRCHDU: Convergence failed at  64  side 2    Res =  0.5551E+01
 MRCHDU: Convergence failed at  65  side 2    Res =  0.5777E+01
 MRCHDU: Convergence failed at  66  side 2    Res =  0.5963E+01
 MRCHDU: Convergence failed at  67  side 2    Res =  0.6140E+01
 MRCHDU: Convergence failed at  68  side 2    Res =  0.6326E+01
 MRCHDU: Convergence failed at  69  side 2    Res =  0.6494E+01
 MRCHDU: Convergence failed at  70  side 2    Res =  0.6664E+01
 MRCHDU: Convergence failed at  71  side 2    Res =  0.6829E+01
 MRCHDU: Convergence failed at  72  side 2    Res =  0.6980E+01
 MRCHDU: Convergence failed at  73  side 2    Res =  0.7133E+01
 MRCHDU: Convergence failed at  74  side 2    Res =  0.7287E+01
 MRCHDU: Convergence failed at  75  side 2    Res =  0.7447E+01
 MRCHDU: Convergence failed at  76  side 2    Res =  0.7763E+01
 MRCHDU: Convergence failed at  77  side 2    Res =  0.8113E+01
 MRCHDU: Convergence failed at  78  side 2    Res =  0.8384E+01
 MRCHDU: Convergence failed at  79  side 2    Res =  0.8683E+01
 MRCHDU: Convergence failed at  80  side 2    Res =  0.8986E+01
 MRCHDU: Convergence failed at  81  side 2    Res =  0.9411E+01
 MRCHDU: Convergence failed at  82  side 2    Res =  0.9990E+01
 MRCHDU: Convergence failed at  83  side 2    Res =  0.1094E+02
 MRCHDU: Convergence failed at  84  side 2    Res =  0.1258E+02
 MRCHDU: Convergence failed at  85  side 2    Res =  0.1501E+02
 MRCHDU: Convergence failed at  86  side 2    Res =  0.1785E+02
 MRCHDU: Convergence failed at  87  side 2    Res =  0.2300E+02
 MRCHDU: Convergence failed at  88  side 2    Res =  0.4609E+02
 MRCHDU: Convergence failed at  89  side 2    Res =  0.1328E+04
 MRCHDU: Convergence failed at  90  side 2    Res =  0.4706E+02
 MRCHDU: Convergence failed at  91  side 2    Res =  0.2610E+02
 MRCHDU: Convergence failed at  92  side 2    Res =  0.1863E+02
 MRCHDU: Convergence failed at  93  side 2    Res =  0.1551E+02
 MRCHDU: Convergence failed at  94  side 2    Res =  0.1380E+02
 MRCHDU: Convergence failed at  95  side 2    Res =  0.1264E+02
 MRCHDU: Convergence failed at  96  side 2    Res =  0.1204E+02
 MRCHDU: Convergence failed at  97  side 2    Res =  0.1164E+02
 MRCHDU: Convergence failed at  98  side 2    Res =  0.1145E+02
 MRCHDU: Convergence failed at  99  side 2    Res =  0.1140E+02
 MRCHDU: Convergence failed at 100  side 2    Res =  0.1152E+02
 MRCHDU: Convergence failed at 101  side 2    Res =  0.1188E+02
 MRCHDU: Convergence failed at 102  side 2    Res =  0.1112E+02
 Side 1  free  transition at x/c =  0.8249   78
 Side 2  free  transition at x/c =  0.1338   35

   2   rms: 0.2520E+00   max: 0.2436E+00   T at  103  2   RLX: 0.730
       a = -1.500      CL =  0.1925
      Cm = -0.0576     CD =  0.00844   =>   CDf =  0.00300    CDp =  0.00544

 Side 1  free  transition at x/c =  0.8298   79
 Side 2  free  transition at x/c =  0.1237   34

   3   rms: 0.7320E-01   max: 0.5316E+00   D at  112  2
       a = -1.500      CL =  0.2792
      Cm = -0.0839     CD =  0.01117   =>   CDf =  0.00707    CDp =  0.00410

 Side 1  free  transition at x/c =  0.8284   79
 Side 2  free  transition at x/c =  0.1331   35

   4   rms: 0.1830E-01   max: 0.3120E+00   D at   35  2
       a = -1.500      CL =  0.2793
      Cm = -0.0840     CD =  0.01078   =>   CDf =  0.00664    CDp =  0.00414

 Side 1  free  transition at x/c =  0.8288   79
 Side 2  free  transition at x/c =  0.1321   35

   5   rms: 0.2253E-02   max: 0.2738E-01   D at   35  2
       a = -1.500      CL =  0.2793
      Cm = -0.0840     CD =  0.01079   =>   CDf =  0.00664    CDp =  0.00415

 Side 1  free  transition at x/c =  0.8288   79
 Side 2  free  transition at x/c =  0.1318   35

   6   rms: 0.1839E-04   max: -.2922E-03   D at   36  2
       a = -1.500      CL =  0.2793
      Cm = -0.0840     CD =  0.01079   =>   CDf =  0.00665    CDp =  0.00415
 plradd ia,ip,cpol            7           0  7.21907150E-03

 Point added to stored polar  1
 plradd ia,ip,cpol            7           0  7.21907150E-03
 Point written to save file  xfoil.polar                                     
 Dump file unspecified or not available
 Calculating wake trajectory ...
 Calculating source influence matrix ...

 Solving BL system ...

 Side 1  free  transition at x/c =  0.8288   79
 Side 2  free  transition at x/c =  0.1317   35
 idif Ue xi dudx           1  0.14170589      2.42102146E-03   58.531445    
 Uenew xinew           2  3.13777812E-02  5.36084175E-04

   1   rms: 0.5093E-01   max: 0.4118E+00   T at   35  2
       a = -1.750      CL =  0.2519
      Cm = -0.0846     CD =  0.01084   =>   CDf =  0.00668    CDp =  0.00416

 Side 1  free  transition at x/c =  0.8429   79
 Side 2  free  transition at x/c =  0.1222   35

   2   rms: 0.2336E-01   max: -.1876E+00   D at   35  2
       a = -1.750      CL =  0.2516
      Cm = -0.0845     CD =  0.01090   =>   CDf =  0.00668    CDp =  0.00422

 Side 1  free  transition at x/c =  0.8465   79
 Side 2  free  transition at x/c =  0.1206   35

   3   rms: 0.1242E-02   max: -.1218E-01   D at   82  1
       a = -1.750      CL =  0.2517
      Cm = -0.0845     CD =  0.01093   =>   CDf =  0.00660    CDp =  0.00433

 Side 1  free  transition at x/c =  0.8462   79
 Side 2  free  transition at x/c =  0.1205   35

   4   rms: 0.1201E-04   max: -.1569E-03   C at   79  1
       a = -1.750      CL =  0.2517
      Cm = -0.0845     CD =  0.01093   =>   CDf =  0.00661    CDp =  0.00432
 plradd ia,ip,cpol            8           0  5.51487273E-03

 Point added to stored polar  1
 plradd ia,ip,cpol            8           0  5.51487273E-03
 Point written to save file  xfoil.polar                                     
 Dump file unspecified or not available
 Calculating wake trajectory ...
 Calculating source influence matrix ...

 Solving BL system ...

 Side 1  free  transition at x/c =  0.8462   79
 Side 2  free  transition at x/c =  0.1205   35

   1   rms: 0.4993E-01   max: 0.3782E+00   T at   35  2
       a = -2.000      CL =  0.2248
      Cm = -0.0853     CD =  0.01100   =>   CDf =  0.00661    CDp =  0.00439

 Side 1  free  transition at x/c =  0.8632   80
 Side 2  free  transition at x/c =  0.1108   34

   2   rms: 0.1709E-01   max: -.1429E+00   D at   34  2
       a = -2.000      CL =  0.2249
      Cm = -0.0852     CD =  0.01110   =>   CDf =  0.00662    CDp =  0.00448

 Side 1  free  transition at x/c =  0.8654   80
 Side 2  free  transition at x/c =  0.1105   34

   3   rms: 0.7073E-03   max: 0.7580E-02   D at   34  2
       a = -2.000      CL =  0.2249
      Cm = -0.0852     CD =  0.01111   =>   CDf =  0.00658    CDp =  0.00452

 Side 1  free  transition at x/c =  0.8655   80
 Side 2  free  transition at x/c =  0.1104   34

   4   rms: 0.2981E-05   max: 0.2877E-04   C at   80  1
       a = -2.000      CL =  0.2249
      Cm = -0.0852     CD =  0.01111   =>   CDf =  0.00658    CDp =  0.00453
 plradd ia,ip,cpol            9           0  5.51487273E-03

 Point added to stored polar  1
 plradd ia,ip,cpol            9           0  5.51487273E-03
 Point written to save file  xfoil.polar                                     
 Dump file unspecified or not available
 Calculating wake trajectory ...
 Calculating source influence matrix ...

 Solving BL system ...

 Side 1  free  transition at x/c =  0.8655   80
 Side 2  free  transition at x/c =  0.1104   34
 idif Ue xi dudx           1  0.13133661      2.06923485E-03   63.471100    
 Uenew xinew           2  4.51710774E-03  7.11679459E-05

   1   rms: 0.4996E-01   max: 0.4091E+00   T at   34  2
       a = -2.250      CL =  0.1978
      Cm = -0.0859     CD =  0.01120   =>   CDf =  0.00662    CDp =  0.00458

 Side 1  free  transition at x/c =  0.8825   80
 Side 2  free  transition at x/c =  0.1004   35

   2   rms: 0.1819E-01   max: -.1811E+00   D at   35  2
       a = -2.250      CL =  0.1982
      Cm = -0.0859     CD =  0.01130   =>   CDf =  0.00660    CDp =  0.00470

 Side 1  free  transition at x/c =  0.8836   80
 Side 2  free  transition at x/c =  0.1009   35

   3   rms: 0.1950E-02   max: -.2993E-01   D at    4  2
       a = -2.250      CL =  0.1982
      Cm = -0.0859     CD =  0.01131   =>   CDf =  0.00658    CDp =  0.00473

 Side 1  free  transition at x/c =  0.8837   80
 Side 2  free  transition at x/c =  0.1008   35

   4   rms: 0.1733E-04   max: 0.1222E-03   D at    8  2
       a = -2.250      CL =  0.1982
      Cm = -0.0859     CD =  0.01131   =>   CDf =  0.00659    CDp =  0.00473
 plradd ia,ip,cpol           10           0  5.51487273E-03

 Point added to stored polar  1
 plradd ia,ip,cpol           10           0  5.51487273E-03
 Point written to save file  xfoil.polar                                     
 Dump file unspecified or not available
 Calculating wake trajectory ...
 Calculating source influence matrix ...

 Solving BL system ...

 Side 1  free  transition at x/c =  0.8837   80
 Side 2  free  transition at x/c =  0.1008   35

   1   rms: 0.7905E-01   max: 0.4907E+00   T at   35  2
       a = -2.500      CL =  0.1708
      Cm = -0.0860     CD =  0.01206   =>   CDf =  0.00658    CDp =  0.00548

 MRCHDU: Convergence failed at  35  side 2    Res =  0.6844E+01
 MRCHDU: Convergence failed at  36  side 2    Res =  0.2960E+01
 MRCHDU: Convergence failed at  37  side 2    Res =  0.6069E+01
 MRCHDU: Convergence failed at  38  side 2    Res =  0.1575E+02
 MRCHDU: Convergence failed at  39  side 2    Res =  0.2765E+02
 MRCHDU: Convergence failed at  40  side 2    Res =  0.3775E+02
 MRCHDU: Convergence failed at  41  side 2    Res =  0.3698E+02
 MRCHDU: Convergence failed at  42  side 2    Res =  0.2319E+02
 MRCHDU: Convergence failed at  43  side 2    Res =  0.1984E+02
 MRCHDU: Convergence failed at  44  side 2    Res =  0.1455E+02
 MRCHDU: Convergence failed at  45  side 2    Res =  0.1069E+02
 MRCHDU: Convergence failed at  46  side 2    Res =  0.8853E+01
 MRCHDU: Convergence failed at  47  side 2    Res =  0.7675E+01
 MRCHDU: Convergence failed at  48  side 2    Res =  0.7393E+01
 MRCHDU: Convergence failed at  49  side 2    Res =  0.6641E+01
 MRCHDU: Convergence failed at  50  side 2    Res =  0.4514E+02
 MRCHDU: Convergence failed at  51  side 2    Res =  0.6177E+02
 MRCHDU: Convergence failed at  52  side 2    Res =  0.7469E+02
 MRCHDU: Convergence failed at  53  side 2    Res =  0.1009E+03
 MRCHDU: Convergence failed at  54  side 2    Res =  0.2001E+03
 MRCHDU: Convergence failed at  55  side 2    Res =  0.1187E+06
 MRCHDU: Convergence failed at  56  side 2    Res =  0.3185E+03
 MRCHDU: Convergence failed at  57  side 2    Res =  0.1833E+03
 MRCHDU: Convergence failed at  58  side 2    Res =  0.1472E+03
 MRCHDU: Convergence failed at  59  side 2    Res =  0.1160E+03
 MRCHDU: Convergence failed at  60  side 2    Res =  0.9508E+02
 MRCHDU: Convergence failed at  61  side 2    Res =  0.9612E+02
 MRCHDU: Convergence failed at  62  side 2    Res =  0.8512E+02
 MRCHDU: Convergence failed at  63  side 2    Res =  0.7573E+02
 MRCHDU: Convergence failed at  64  side 2    Res =  0.6968E+02
 MRCHDU: Convergence failed at  65  side 2    Res =  0.6429E+02
 MRCHDU: Convergence failed at  66  side 2    Res =  0.6810E+02
 MRCHDU: Convergence failed at  67  side 2    Res =  0.6390E+02
 MRCHDU: Convergence failed at  68  side 2    Res =  0.6063E+02
 MRCHDU: Convergence failed at  69  side 2    Res =  0.5806E+02
 MRCHDU: Convergence failed at  70  side 2    Res =  0.5581E+02
 MRCHDU: Convergence failed at  71  side 2    Res =  0.5392E+02
 MRCHDU: Convergence failed at  72  side 2    Res =  0.5258E+02
 MRCHDU: Convergence failed at  73  side 2    Res =  0.5179E+02
 MRCHDU: Convergence failed at  74  side 2    Res =  0.5069E+02
 MRCHDU: Convergence failed at  75  side 2    Res =  0.5001E+02
 MRCHDU: Convergence failed at  76  side 2    Res =  0.4945E+02
 MRCHDU: Convergence failed at  77  side 2    Res =  0.4872E+02
 MRCHDU: Convergence failed at  78  side 2    Res =  0.4816E+02
 MRCHDU: Convergence failed at  79  side 2    Res =  0.4754E+02
 MRCHDU: Convergence failed at  80  side 2    Res =  0.4644E+02
 MRCHDU: Convergence failed at  81  side 2    Res =  0.5089E+02
 MRCHDU: Convergence failed at  82  side 2    Res =  0.4919E+02
 MRCHDU: Convergence failed at  83  side 2    Res =  0.4688E+02
 MRCHDU: Convergence failed at  84  side 2    Res =  0.4482E+02
 MRCHDU: Convergence failed at  85  side 2    Res =  0.4241E+02
 MRCHDU: Convergence failed at  86  side 2    Res =  0.4451E+02
 MRCHDU: Convergence failed at  87  side 2    Res =  0.4161E+02
 MRCHDU: Convergence failed at  88  side 2    Res =  0.3874E+02
 MRCHDU: Convergence failed at  89  side 2    Res =  0.3591E+02
 MRCHDU: Convergence failed at  90  side 2    Res =  0.3379E+02
 MRCHDU: Convergence failed at  91  side 2    Res =  0.3225E+02
 MRCHDU: Convergence failed at  92  side 2    Res =  0.3134E+02
 MRCHDU: Convergence failed at  93  side 2    Res =  0.3079E+02
 MRCHDU: Convergence failed at  94  side 2    Res =  0.3067E+02
 MRCHDU: Convergence failed at  95  side 2    Res =  0.3077E+02
 MRCHDU: Convergence failed at  96  side 2    Res =  0.3116E+02
 MRCHDU: Convergence failed at  97  side 2    Res =  0.3174E+02
 MRCHDU: Convergence failed at  98  side 2    Res =  0.3263E+02
 MRCHDU: Convergence failed at  99  side 2    Res =  0.3363E+02
 MRCHDU: Convergence failed at 100  side 2    Res =  0.3542E+02
 MRCHDU: Convergence failed at 101  side 2    Res =  0.3798E+02
 MRCHDU: Convergence failed at 102  side 2    Res =  0.4229E+02
 MRCHDU: Convergence failed at 103  side 2    Res =  0.5086E+02
 MRCHDU: Convergence failed at 104  side 2    Res =  0.6368E+02
 Side 1  free  transition at x/c =  0.9012   82
 Side 2  free  transition at x/c =  0.0916   34

   2   rms: 0.3525E+00   max: 0.1036E+01   D at  117  2
       a = -2.500      CL =  0.1427
      Cm = -0.0723     CD =  0.01211   =>   CDf =  0.00263    CDp =  0.00948

 MRCHDU: Convergence failed at  34  side 2    Res =  0.8727E+01
 MRCHDU: Convergence failed at  35  side 2    Res =  0.1862E+02
 MRCHDU: Convergence failed at 118  side 2    Res =  0.2053E+01
 Side 1  free  transition at x/c =  0.9034   82
 Side 2  free  transition at x/c =  0.0833   33

   3   rms: 0.1233E+01   max: -.8593E+01   T at   33  2   RLX: 0.058
       a = -2.500      CL =  0.2462
      Cm = -0.1072     CD =  0.03449   =>   CDf =  0.00304    CDp =  0.03145

 MRCHDU: Convergence failed at  55  side 2    Res =  0.1354E+00
 MRCHDU: Convergence failed at  56  side 2    Res =  0.5924E+00
 MRCHDU: Convergence failed at  73  side 2    Res =  0.9043E-01
 Side 1  free  transition at x/c =  0.9047   82
 Side 2  free  transition at x/c =  0.0910   34

   4   rms: 0.4028E+00   max: -.1694E+01   D at   60  2   RLX: 0.295
       a = -2.500      CL =  0.2710
      Cm = -0.1124     CD =  0.02527   =>   CDf =  0.00334    CDp =  0.02192

 MRCHDU: Convergence failed at  73  side 2    Res =  0.1851E-01
 Side 1  free  transition at x/c =  0.8987   82
 Side 2  free  transition at x/c =  0.0935   34

   5   rms: 0.5416E+00   max: -.2546E+01   D at   48  2   RLX: 0.196
       a = -2.500      CL =  0.2639
      Cm = -0.1114     CD =  0.02230   =>   CDf =  0.00355    CDp =  0.01874

 Side 1  free  transition at x/c =  0.8975   82
 Side 2  free  transition at x/c =  0.0956   34

   6   rms: 0.7995E+00   max: -.4495E+01   D at   50  2   RLX: 0.111
       a = -2.500      CL =  0.2478
      Cm = -0.1077     CD =  0.02099   =>   CDf =  0.00377    CDp =  0.01723

 Side 1  free  transition at x/c =  0.8970   81
 Side 2  free  transition at x/c =  0.0964   34

   7   rms: 0.4620E+00   max: -.2527E+01   D at   54  2   RLX: 0.198
       a = -2.500      CL =  0.2322
      Cm = -0.1041     CD =  0.02018   =>   CDf =  0.00400    CDp =  0.01619

 MRCHDU: Convergence failed at  41  side 2    Res =  0.1932E+00
 Side 1  free  transition at x/c =  0.8949   81
 Side 2  free  transition at x/c =  0.0967   34

   8   rms: 0.4018E+00   max: -.1688E+01   D at   55  2   RLX: 0.296
       a = -2.500      CL =  0.2179
      Cm = -0.1040     CD =  0.01728   =>   CDf =  0.00434    CDp =  0.01294

 Side 1  free  transition at x/c =  0.8930   81
 Side 2  free  transition at x/c =  0.0968   34

   9   rms: 0.4464E+00   max: -.2298E+01   D at   74  2   RLX: 0.218
       a = -2.500      CL =  0.2177
      Cm = -0.1054     CD =  0.01532   =>   CDf =  0.00461    CDp =  0.01070

 Side 1  free  transition at x/c =  0.8919   81
 Side 2  free  transition at x/c =  0.0963   34

  10   rms: 0.4656E+00   max: -.2223E+01   D at   73  2   RLX: 0.225
       a = -2.500      CL =  0.2136
      Cm = -0.1043     CD =  0.01322   =>   CDf =  0.00495    CDp =  0.00827

 Side 1  free  transition at x/c =  0.8923   81
 Side 2  free  transition at x/c =  0.0960   34

  11   rms: 0.5268E+00   max: -.2798E+01   D at   65  2   RLX: 0.179
       a = -2.500      CL =  0.2038
      Cm = -0.1016     CD =  0.01177   =>   CDf =  0.00533    CDp =  0.00644

 Side 1  free  transition at x/c =  0.8929   81
 Side 2  free  transition at x/c =  0.0948   34

  12   rms: 0.5218E+00   max: -.3332E+01   D at   65  2   RLX: 0.150
       a = -2.500      CL =  0.1902
      Cm = -0.0977     CD =  0.01157   =>   CDf =  0.00552    CDp =  0.00605

 MRCHDU: Convergence failed at  61  side 2    Res =  0.1075E+01
 MRCHDU: Convergence failed at  62  side 2    Res =  0.3484E+00
 MRCHDU: Convergence failed at  63  side 2    Res =  0.3048E+00
 MRCHDU: Convergence failed at  64  side 2    Res =  0.7641E+00
 MRCHDU: Convergence failed at  65  side 2    Res =  0.5544E+00
 MRCHDU: Convergence failed at  66  side 2    Res =  0.3953E+00
 MRCHDU: Convergence failed at  67  side 2    Res =  0.6201E+00
 Side 1  free  transition at x/c =  0.8930   81
 Side 2  free  transition at x/c =  0.0937   34

  13   rms: 0.3341E+00   max: -.1686E+01   D at   70  2   RLX: 0.297
       a = -2.500      CL =  0.1042
      Cm = -0.0726     CD =  0.01140   =>   CDf =  0.00688    CDp =  0.00452

 MRCHDU: Convergence failed at  69  side 2    Res =  0.1795E+01
 MRCHDU: Convergence failed at  70  side 2    Res =  0.1685E+01
 MRCHDU: Convergence failed at  71  side 2    Res =  0.2256E+01
 MRCHDU: Convergence failed at  72  side 2    Res =  0.1431E+02
 MRCHDU: Convergence failed at  75  side 2    Res =  0.3663E+01
 MRCHDU: Convergence failed at  76  side 2    Res =  0.1160E+01
 MRCHDU: Convergence failed at  78  side 2    Res =  0.1149E+02
 MRCHDU: Convergence failed at  79  side 2    Res =  0.2035E+02
 MRCHDU: Convergence failed at  80  side 2    Res =  0.1043E+02
 MRCHDU: Convergence failed at  81  side 2    Res =  0.7410E+01
 MRCHDU: Convergence failed at  82  side 2    Res =  0.7527E+01
 MRCHDU: Convergence failed at  83  side 2    Res =  0.9572E+01
 MRCHDU: Convergence failed at  84  side 2    Res =  0.1762E+02
 MRCHDU: Convergence failed at  85  side 2    Res =  0.3815E+03
 MRCHDU: Convergence failed at  88  side 2    Res =  0.1884E+01
 MRCHDU: Convergence failed at  89  side 2    Res =  0.4163E+01
 MRCHDU: Convergence failed at  90  side 2    Res =  0.4951E+01
 MRCHDU: Convergence failed at  91  side 2    Res =  0.5312E+01
 MRCHDU: Convergence failed at  92  side 2    Res =  0.5360E+01
 MRCHDU: Convergence failed at  93  side 2    Res =  0.5186E+01
 MRCHDU: Convergence failed at  94  side 2    Res =  0.5007E+01
 MRCHDU: Convergence failed at  95  side 2    Res =  0.4711E+01
 MRCHDU: Convergence failed at  96  side 2    Res =  0.4502E+01
 MRCHDU: Convergence failed at  97  side 2    Res =  0.4210E+01
 MRCHDU: Convergence failed at  98  side 2    Res =  0.3958E+01
 MRCHDU: Convergence failed at  99  side 2    Res =  0.3655E+01
 MRCHDU: Convergence failed at 100  side 2    Res =  0.3349E+01
 MRCHDU: Convergence failed at 101  side 2    Res =  0.2970E+01
 MRCHDU: Convergence failed at 104  side 2    Res =  0.4601E+01
 MRCHDU: Convergence failed at 106  side 2    Res =  0.1087E-01
 Side 1  free  transition at x/c =  0.8911   81
 Side 2  free  transition at x/c =  0.0907   34

  14   rms: 0.2715E+00   max: -.1179E+01   D at   70  2   RLX: 0.424
       a = -2.500      CL =  0.0643
      Cm = -0.0378     CD =  0.00843   =>   CDf =  0.00634    CDp =  0.00209

 Side 1  free  transition at x/c =  0.8944   81
 Side 2  free  transition at x/c =  0.0923   34

  15   rms: 0.1590E+00   max: -.8436E+00   D at   69  2   RLX: 0.593
       a = -2.500      CL =  0.1278
      Cm = -0.0673     CD =  0.01002   =>   CDf =  0.00696    CDp =  0.00306

 Side 1  free  transition at x/c =  0.8966   81
 Side 2  free  transition at x/c =  0.0924   34

  16   rms: 0.7817E-01   max: -.4853E+00   D at   68  2
       a = -2.500      CL =  0.1712
      Cm = -0.0868     CD =  0.01128   =>   CDf =  0.00673    CDp =  0.00455

 Side 1  free  transition at x/c =  0.8979   82
 Side 2  free  transition at x/c =  0.0928   34

  17   rms: 0.8752E-02   max: -.1126E+00   D at   68  2
       a = -2.500      CL =  0.1714
      Cm = -0.0867     CD =  0.01144   =>   CDf =  0.00654    CDp =  0.00490

 Side 1  free  transition at x/c =  0.8979   82
 Side 2  free  transition at x/c =  0.0929   34

  18   rms: 0.3098E-03   max: -.4164E-02   D at   68  2
       a = -2.500      CL =  0.1714
      Cm = -0.0867     CD =  0.01144   =>   CDf =  0.00653    CDp =  0.00491

 Side 1  free  transition at x/c =  0.8978   82
 Side 2  free  transition at x/c =  0.0929   34

  19   rms: 0.2034E-05   max: -.1989E-04   D at  115  2
       a = -2.500      CL =  0.1714
      Cm = -0.0867     CD =  0.01144   =>   CDf =  0.00653    CDp =  0.00491
 plradd ia,ip,cpol           11           0  5.51487273E-03

 Point added to stored polar  1
 plradd ia,ip,cpol           11           0  5.51487273E-03
 Point written to save file  xfoil.polar                                     
 Dump file unspecified or not available
 Calculating wake trajectory ...
 Calculating source influence matrix ...

 Solving BL system ...

 Side 1  free  transition at x/c =  0.8978   82
 Side 2  free  transition at x/c =  0.0929   34

   1   rms: 0.5152E-01   max: 0.4250E+00   T at   34  2
       a = -2.750      CL =  0.1451
      Cm = -0.0876     CD =  0.01156   =>   CDf =  0.00653    CDp =  0.00503

 Side 1  free  transition at x/c =  0.9060   82
 Side 2  free  transition at x/c =  0.0868   33

   2   rms: 0.2295E-01   max: -.1598E+00   D at   33  2
       a = -2.750      CL =  0.1444
      Cm = -0.0873     CD =  0.01167   =>   CDf =  0.00656    CDp =  0.00512

 Side 1  free  transition at x/c =  0.9108   83
 Side 2  free  transition at x/c =  0.0857   33

   3   rms: 0.2243E-02   max: -.3311E-01   D at   82  1
       a = -2.750      CL =  0.1445
      Cm = -0.0873     CD =  0.01169   =>   CDf =  0.00653    CDp =  0.00516

 Side 1  free  transition at x/c =  0.9105   82
 Side 2  free  transition at x/c =  0.0857   33

   4   rms: 0.2610E-03   max: 0.4247E-02   D at   83  1
       a = -2.750      CL =  0.1446
      Cm = -0.0873     CD =  0.01169   =>   CDf =  0.00653    CDp =  0.00516

 Side 1  free  transition at x/c =  0.9103   82
 Side 2  free  transition at x/c =  0.0857   33

   5   rms: 0.5114E-05   max: 0.6050E-04   D at    4  1
       a = -2.750      CL =  0.1446
      Cm = -0.0873     CD =  0.01169   =>   CDf =  0.00653    CDp =  0.00516
 plradd ia,ip,cpol           12           0  5.51487273E-03

 Point added to stored polar  1
 plradd ia,ip,cpol           12           0  5.51487273E-03
 Point written to save file  xfoil.polar                                     
 Dump file unspecified or not available
 Calculating wake trajectory ...
 Calculating source influence matrix ...

 Solving BL system ...

 Side 1  free  transition at x/c =  0.9103   82
 Side 2  free  transition at x/c =  0.0857   33
 idif Ue xi dudx           1  0.13635169      2.98511982E-03   45.677124    
 Uenew xinew           2  3.94336842E-02  8.63313675E-04

   1   rms: 0.4630E-01   max: 0.3844E+00   T at   33  2
       a = -3.000      CL =  0.1169
      Cm = -0.0877     CD =  0.01182   =>   CDf =  0.00656    CDp =  0.00526

 Side 1  free  transition at x/c =  0.9273   83
 Side 2  free  transition at x/c =  0.0788   33

   2   rms: 0.2540E-01   max: 0.1817E+00   C at   83  1
       a = -3.000      CL =  0.1184
      Cm = -0.0880     CD =  0.01196   =>   CDf =  0.00657    CDp =  0.00539

 Side 1  free  transition at x/c =  0.9235   83
 Side 2  free  transition at x/c =  0.0790   34

   3   rms: 0.5955E-02   max: -.5189E-01   D at   89  1
       a = -3.000      CL =  0.1179
      Cm = -0.0879     CD =  0.01197   =>   CDf =  0.00657    CDp =  0.00540

 Side 1  free  transition at x/c =  0.9224   82
 Side 2  free  transition at x/c =  0.0790   34

   4   rms: 0.1430E-02   max: 0.1859E-01   D at   83  1
       a = -3.000      CL =  0.1178
      Cm = -0.0880     CD =  0.01197   =>   CDf =  0.00657    CDp =  0.00540

 Side 1  free  transition at x/c =  0.9214   82
 Side 2  free  transition at x/c =  0.0790   34

   5   rms: 0.9915E-04   max: -.1083E-02   D at   83  1
       a = -3.000      CL =  0.1178
      Cm = -0.0880     CD =  0.01197   =>   CDf =  0.00657    CDp =  0.00540
 plradd ia,ip,cpol           13           0  5.51487273E-03

 Point added to stored polar  1
 plradd ia,ip,cpol           13           0  5.51487273E-03
 Point written to save file  xfoil.polar                                     
 Dump file unspecified or not available
 Calculating wake trajectory ...
 Calculating source influence matrix ...

 Solving BL system ...

 Side 1  free  transition at x/c =  0.9215   82
 Side 2  free  transition at x/c =  0.0790   34

   1   rms: 0.9557E-01   max: 0.5276E+00   T at   34  2
       a = -3.250      CL =  0.0922
      Cm = -0.0884     CD =  0.01316   =>   CDf =  0.00657    CDp =  0.00659

 Side 1  free  transition at x/c =  0.9356   84
 Side 2  free  transition at x/c =  0.0713   33

   2   rms: 0.6861E-01   max: -.5992E+00   D at   33  2   RLX: 0.834
       a = -3.250      CL =  0.0917
      Cm = -0.0886     CD =  0.01238   =>   CDf =  0.00651    CDp =  0.00587

 Side 1  free  transition at x/c =  0.9344   83
 Side 2  free  transition at x/c =  0.0727   33

   3   rms: 0.1367E-01   max: -.1864E+00   D at   33  2
       a = -3.250      CL =  0.0908
      Cm = -0.0887     CD =  0.01208   =>   CDf =  0.00652    CDp =  0.00556

 Side 1  free  transition at x/c =  0.9327   83
 Side 2  free  transition at x/c =  0.0730   33

   4   rms: 0.5305E-03   max: 0.5663E-02   D at   34  2
       a = -3.250      CL =  0.0908
      Cm = -0.0887     CD =  0.01207   =>   CDf =  0.00651    CDp =  0.00556

 Side 1  free  transition at x/c =  0.9329   83
 Side 2  free  transition at x/c =  0.0730   33

   5   rms: 0.2810E-05   max: -.2708E-04   D at   84  1
       a = -3.250      CL =  0.0908
      Cm = -0.0887     CD =  0.01207   =>   CDf =  0.00651    CDp =  0.00556
 plradd ia,ip,cpol           14           0  5.51487273E-03

 Point added to stored polar  1
 plradd ia,ip,cpol           14           0  5.51487273E-03
 Point written to save file  xfoil.polar                                     
 Dump file unspecified or not available
 Calculating wake trajectory ...
 Calculating source influence matrix ...

 Solving BL system ...

 Side 1  free  transition at x/c =  0.9329   83
 Side 2  free  transition at x/c =  0.0730   33
 idif Ue xi dudx           1  0.11307623      2.69746780E-03   41.919399    
 Uenew xinew           2  1.90092791E-02  4.53472137E-04

   1   rms: 0.4840E-01   max: 0.4447E+00   T at   33  2
       a = -3.500      CL =  0.0645
      Cm = -0.0894     CD =  0.01219   =>   CDf =  0.00654    CDp =  0.00566

 Side 1  free  transition at x/c =  0.9470   84
 Side 2  free  transition at x/c =  0.0680   33

   2   rms: 0.2148E-01   max: -.1652E+00   D at   33  2
       a = -3.500      CL =  0.0640
      Cm = -0.0893     CD =  0.01231   =>   CDf =  0.00652    CDp =  0.00578

 Side 1  free  transition at x/c =  0.9450   83
 Side 2  free  transition at x/c =  0.0669   33

   3   rms: 0.2575E-02   max: 0.2726E-01   D at   85  1
       a = -3.500      CL =  0.0633
      Cm = -0.0892     CD =  0.01232   =>   CDf =  0.00651    CDp =  0.00582

 Side 1  free  transition at x/c =  0.9435   83
 Side 2  free  transition at x/c =  0.0668   33

   4   rms: 0.2742E-03   max: -.2876E-02   D at   85  1
       a = -3.500      CL =  0.0634
      Cm = -0.0892     CD =  0.01232   =>   CDf =  0.00651    CDp =  0.00582

 Side 1  free  transition at x/c =  0.9436   83
 Side 2  free  transition at x/c =  0.0668   33

   5   rms: 0.2613E-05   max: -.2396E-04   D at  117  2
       a = -3.500      CL =  0.0634
      Cm = -0.0892     CD =  0.01232   =>   CDf =  0.00651    CDp =  0.00582
 plradd ia,ip,cpol           15           0  5.51487273E-03

 Point added to stored polar  1
 plradd ia,ip,cpol           15           0  5.51487273E-03
 Point written to save file  xfoil.polar                                     
 Dump file unspecified or not available
 Calculating wake trajectory ...
 Calculating source influence matrix ...

 Solving BL system ...

 Side 1  free  transition at x/c =  0.9436   83
 Side 2  free  transition at x/c =  0.0668   33

   1   rms: 0.4667E-01   max: 0.3966E+00   T at   33  2
       a = -3.750      CL =  0.0371
      Cm = -0.0900     CD =  0.01245   =>   CDf =  0.00650    CDp =  0.00594

 Side 1  free  transition at x/c =  0.9575   85
 Side 2  free  transition at x/c =  0.0613   32

   2   rms: 0.3007E-01   max: -.2155E+00   D at   33  2
       a = -3.750      CL =  0.0364
      Cm = -0.0897     CD =  0.01259   =>   CDf =  0.00657    CDp =  0.00603

 Side 1  free  transition at x/c =  0.9552   85
 Side 2  free  transition at x/c =  0.0614   32

   3   rms: 0.5576E-02   max: 0.4078E-01   C at   85  1
       a = -3.750      CL =  0.0351
      Cm = -0.0895     CD =  0.01261   =>   CDf =  0.00655    CDp =  0.00606

 Side 1  free  transition at x/c =  0.9539   84
 Side 2  free  transition at x/c =  0.0612   32

   4   rms: 0.5612E-03   max: 0.4211E-02   T at   84  1
       a = -3.750      CL =  0.0347
      Cm = -0.0894     CD =  0.01261   =>   CDf =  0.00655    CDp =  0.00606

 Side 1  free  transition at x/c =  0.9536   84
 Side 2  free  transition at x/c =  0.0612   32

   5   rms: 0.2047E-04   max: -.2009E-03   D at   87  1
       a = -3.750      CL =  0.0347
      Cm = -0.0894     CD =  0.01261   =>   CDf =  0.00655    CDp =  0.00607
 plradd ia,ip,cpol           16           0  5.51487273E-03

 Point added to stored polar  1
 plradd ia,ip,cpol           16           0  5.51487273E-03
 Point written to save file  xfoil.polar                                     
 Dump file unspecified or not available
 Calculating wake trajectory ...
 Calculating source influence matrix ...

 Solving BL system ...

 Side 1  free  transition at x/c =  0.9536   84
 Side 2  free  transition at x/c =  0.0612   32
 idif Ue xi dudx           1  9.68167409E-02  2.39825249E-03   40.369701    
 Uenew xinew           2  1.37635879E-03  3.40938568E-05

   1   rms: 0.5046E-01   max: 0.5050E+00   T at   32  2
       a = -4.000      CL =  0.0088
      Cm = -0.0903     CD =  0.01266   =>   CDf =  0.00656    CDp =  0.00610

 Side 1  free  transition at x/c =  0.9692   86
 Side 2  free  transition at x/c =  0.0558   33

   2   rms: 0.2880E-01   max: 0.1884E+00   C at   86  1
       a = -4.000      CL =  0.0078
      Cm = -0.0900     CD =  0.01277   =>   CDf =  0.00653    CDp =  0.00624

 Side 1  free  transition at x/c =  0.9664   85
 Side 2  free  transition at x/c =  0.0561   33

   3   rms: 0.1522E-01   max: 0.1033E+00   T at   85  1
       a = -4.000      CL =  0.0017
      Cm = -0.0887     CD =  0.01285   =>   CDf =  0.00652    CDp =  0.00633

 Side 1  free  transition at x/c =  0.9593   84
 Side 2  free  transition at x/c =  0.0556   33

   4   rms: 0.8974E-02   max: -.6810E-01   D at   87  1
       a = -4.000      CL =  0.0040
      Cm = -0.0891     CD =  0.01282   =>   CDf =  0.00653    CDp =  0.00629

 Side 1  free  transition at x/c =  0.9624   85
 Side 2  free  transition at x/c =  0.0557   33

   5   rms: 0.1376E-02   max: -.2495E-01   D at   84  1
       a = -4.000      CL =  0.0035
      Cm = -0.0890     CD =  0.01283   =>   CDf =  0.00653    CDp =  0.00631

 Side 1  free  transition at x/c =  0.9619   85
 Side 2  free  transition at x/c =  0.0557   33

   6   rms: 0.1855E-03   max: 0.1299E-02   C at   85  1
       a = -4.000      CL =  0.0035
      Cm = -0.0890     CD =  0.01283   =>   CDf =  0.00653    CDp =  0.00631

 Side 1  free  transition at x/c =  0.9618   85
 Side 2  free  transition at x/c =  0.0557   33

   7   rms: 0.9396E-06   max: 0.5622E-05   D at    4  2
       a = -4.000      CL =  0.0035
      Cm = -0.0890     CD =  0.01283   =>   CDf =  0.00653    CDp =  0.00631
 plradd ia,ip,cpol           17           0  4.04583802E-03

 Point added to stored polar  1
 plradd ia,ip,cpol           17           0  4.04583802E-03
 Point written to save file  xfoil.polar                                     
 Dump file unspecified or not available

.OPERva   c>   BLs will be initialized on next point

.OPERva   c>   Calculating wake trajectory ...
 Calculating source influence matrix ...

 Solving BL system ...

 Initializing BL ...
    side            1  ...
 MRCHUE: Inverse mode at  60     Hk =   3.954
 MRCHUE: Inverse mode at  61     Hk =   4.464
 MRCHUE: Inverse mode at  62     Hk =   4.966
 MRCHUE: Inverse mode at  63     Hk =   5.460
 MRCHUE: Inverse mode at  64     Hk =   5.949
 MRCHUE: Inverse mode at  65     Hk =   6.433
 MRCHUE: Inverse mode at  66     Hk =   6.913
 MRCHUE: Inverse mode at  67     Hk =   7.378
 MRCHUE: Inverse mode at  68     Hk =   5.021
 MRCHUE: Inverse mode at  69     Hk =   3.519
    side            2  ...
 MRCHUE: Inverse mode at  30     Hk =   4.214
 MRCHUE: Inverse mode at  31     Hk =   5.137
 MRCHUE: Inverse mode at  32     Hk =   6.067
 MRCHUE: Inverse mode at  33     Hk =   6.994
 MRCHUE: Inverse mode at  34     Hk =   7.910
 MRCHUE: Inverse mode at  35     Hk =   8.806
 MRCHUE: Inverse mode at  36     Hk =   8.582
 MRCHUE: Inverse mode at  37     Hk =   4.917
 MRCHUE: Inverse mode at  38     Hk =   3.112
 MRCHUE: Inverse mode at 102     Hk =   1.591
 MRCHUE: Inverse mode at 103     Hk =   1.590
 MRCHUE: Inverse mode at 104     Hk =   1.588
 MRCHUE: Inverse mode at 105     Hk =   1.587
 MRCHUE: Inverse mode at 106     Hk =   1.585

 Side 1  free  transition at x/c =  0.6348   67
 Side 2  free  transition at x/c =  0.1819   36

   1   rms: 0.1734E+00   max: -.1143E+01   T at   67  1   RLX: 0.437
       a =  0.000      CL =  0.4513
      Cm = -0.0830     CD =  0.01193   =>   CDf =  0.00792    CDp =  0.00402

 MRCHDU: Convergence failed at  69  side 1    Res =  0.4970E+01
 MRCHDU: Convergence failed at  38  side 2    Res =  0.3320E+01
 Side 1  free  transition at x/c =  0.6642   69
 Side 2  free  transition at x/c =  0.1976   37

   2   rms: 0.1094E+00   max: -.8776E+00   T at   69  1   RLX: 0.570
       a =  0.000      CL =  0.4536
      Cm = -0.0842     CD =  0.01059   =>   CDf =  0.00771    CDp =  0.00289

 MRCHDU: Convergence failed at  72  side 1    Res =  0.2651E+01
 Side 1  free  transition at x/c =  0.7033   72
 Side 2  free  transition at x/c =  0.2145   39

   3   rms: 0.5921E-01   max: -.4807E+00   C at   39  2
       a =  0.000      CL =  0.4503
      Cm = -0.0831     CD =  0.01013   =>   CDf =  0.00700    CDp =  0.00313

 Side 1  free  transition at x/c =  0.7353   74
 Side 2  free  transition at x/c =  0.2429   40

   4   rms: 0.2466E-01   max: -.4018E+00   C at   40  2
       a =  0.000      CL =  0.4499
      Cm = -0.0831     CD =  0.01019   =>   CDf =  0.00675    CDp =  0.00344

 Side 1  free  transition at x/c =  0.7233   73
 Side 2  free  transition at x/c =  0.2298   40

   5   rms: 0.8132E-02   max: 0.1013E+00   D at   41  2
       a =  0.000      CL =  0.4493
      Cm = -0.0829     CD =  0.01031   =>   CDf =  0.00680    CDp =  0.00351

 Side 1  free  transition at x/c =  0.7267   74
 Side 2  free  transition at x/c =  0.2316   40

   6   rms: 0.1973E-02   max: -.3534E-01   D at   73  1
       a =  0.000      CL =  0.4495
      Cm = -0.0829     CD =  0.01029   =>   CDf =  0.00675    CDp =  0.00355

 Side 1  free  transition at x/c =  0.7263   74
 Side 2  free  transition at x/c =  0.2316   40

   7   rms: 0.1247E-03   max: 0.2066E-02   C at   74  1
       a =  0.000      CL =  0.4495
      Cm = -0.0829     CD =  0.01029   =>   CDf =  0.00674    CDp =  0.00356

 Side 1  free  transition at x/c =  0.7263   74
 Side 2  free  transition at x/c =  0.2316   40

   8   rms: 0.1348E-05   max: 0.9255E-05   D at   75  1
       a =  0.000      CL =  0.4495
      Cm = -0.0829     CD =  0.01029   =>   CDf =  0.00674    CDp =  0.00356
 plradd ia,ip,cpol           18           0  9.41703916E-02

 Point added to stored polar  1
 plradd ia,ip,cpol           18           0  9.41703916E-02
 Point written to save file  xfoil.polar                                     
 Dump file unspecified or not available
 Calculating wake trajectory ...
 Calculating source influence matrix ...

 Solving BL system ...

 Side 1  free  transition at x/c =  0.7263   74
 Side 2  free  transition at x/c =  0.2316   40

   1   rms: 0.7028E-01   max: -.7868E+00   C at   40  2   RLX: 0.635
       a =  0.250      CL =  0.4674
      Cm = -0.0829     CD =  0.01021   =>   CDf =  0.00670    CDp =  0.00351

 Side 1  free  transition at x/c =  0.7162   74
 Side 2  free  transition at x/c =  0.2483   40

   2   rms: 0.4019E-01   max: -.5740E+00   C at   40  2   RLX: 0.871
       a =  0.250      CL =  0.4770
      Cm = -0.0830     CD =  0.01015   =>   CDf =  0.00674    CDp =  0.00342

 Side 1  free  transition at x/c =  0.7094   74
 Side 2  free  transition at x/c =  0.2651   41

   3   rms: 0.2370E-01   max: -.4717E+00   C at   41  2
       a =  0.250      CL =  0.4781
      Cm = -0.0830     CD =  0.01014   =>   CDf =  0.00671    CDp =  0.00343

 Side 1  free  transition at x/c =  0.7095   74
 Side 2  free  transition at x/c =  0.2760   42

   4   rms: 0.1065E-01   max: -.2166E+00   C at   42  2
       a =  0.250      CL =  0.4781
      Cm = -0.0830     CD =  0.01014   =>   CDf =  0.00666    CDp =  0.00348

 Side 1  free  transition at x/c =  0.7094   74
 Side 2  free  transition at x/c =  0.2801   42

   5   rms: 0.5132E-03   max: 0.1065E-01   C at   42  2
       a =  0.250      CL =  0.4781
      Cm = -0.0830     CD =  0.01014   =>   CDf =  0.00662    CDp =  0.00352

 Side 1  free  transition at x/c =  0.7094   74
 Side 2  free  transition at x/c =  0.2798   42

   6   rms: 0.2091E-05   max: -.1768E-04   C at   42  2
       a =  0.250      CL =  0.4781
      Cm = -0.0830     CD =  0.01014   =>   CDf =  0.00662    CDp =  0.00351
 plradd ia,ip,cpol           19           0  9.41703916E-02

 Point added to stored polar  1
 plradd ia,ip,cpol           19           0  9.41703916E-02
 Point written to save file  xfoil.polar                                     
 Dump file unspecified or not available
 Calculating wake trajectory ...
 Calculating source influence matrix ...

 Solving BL system ...

 Side 1  free  transition at x/c =  0.7094   74
 Side 2  free  transition at x/c =  0.2798   42

   1   rms: 0.1272E+00   max: -.2568E+01   C at   42  2   RLX: 0.195
       a =  0.500      CL =  0.4836
      Cm = -0.0830     CD =  0.01010   =>   CDf =  0.00663    CDp =  0.00347

 Side 1  free  transition at x/c =  0.7065   73
 Side 2  free  transition at x/c =  0.2934   43

   2   rms: 0.1349E+00   max: -.2816E+01   C at   43  2   RLX: 0.178
       a =  0.500      CL =  0.4882
      Cm = -0.0831     CD =  0.01004   =>   CDf =  0.00659    CDp =  0.00345

 Side 1  free  transition at x/c =  0.7034   73
 Side 2  free  transition at x/c =  0.3042   44

   3   rms: 0.1305E+00   max: -.2634E+01   C at   44  2   RLX: 0.190
       a =  0.500      CL =  0.4921
      Cm = -0.0832     CD =  0.01001   =>   CDf =  0.00657    CDp =  0.00344

 Side 1  free  transition at x/c =  0.7008   73
 Side 2  free  transition at x/c =  0.3176   44

   4   rms: 0.1176E+00   max: -.2534E+01   C at   44  2   RLX: 0.197
       a =  0.500      CL =  0.4954
      Cm = -0.0832     CD =  0.01000   =>   CDf =  0.00653    CDp =  0.00347

 Side 1  free  transition at x/c =  0.6988   73
 Side 2  free  transition at x/c =  0.3345   46

   5   rms: 0.1727E+00   max: -.3704E+01   C at   46  2   RLX: 0.135
       a =  0.500      CL =  0.4972
      Cm = -0.0832     CD =  0.00994   =>   CDf =  0.00648    CDp =  0.00346

 Side 1  free  transition at x/c =  0.6977   73
 Side 2  free  transition at x/c =  0.3498   47

   6   rms: 0.2767E+00   max: -.5880E+01   C at   47  2   RLX: 0.085
       a =  0.500      CL =  0.4980
      Cm = -0.0832     CD =  0.00988   =>   CDf =  0.00641    CDp =  0.00347

 Side 1  free  transition at x/c =  0.6972   73
 Side 2  free  transition at x/c =  0.3757   48

   7   rms: 0.4137E+00   max: -.8302E+01   C at   48  2   RLX: 0.060
       a =  0.500      CL =  0.4984
      Cm = -0.0833     CD =  0.00981   =>   CDf =  0.00633    CDp =  0.00348

 Side 1  free  transition at x/c =  0.6968   73
 Side 2  free  transition at x/c =  0.3887   49

   8   rms: 0.3668E+00   max: -.7400E+01   C at   49  2   RLX: 0.068
       a =  0.500      CL =  0.4990
      Cm = -0.0833     CD =  0.00978   =>   CDf =  0.00630    CDp =  0.00348

 Side 1  free  transition at x/c =  0.6965   73
 Side 2  free  transition at x/c =  0.4148   51

   9   rms: 0.5614E+00   max: -.1136E+02   C at   51  2   RLX: 0.044
       a =  0.500      CL =  0.4992
      Cm = -0.0833     CD =  0.00970   =>   CDf =  0.00622    CDp =  0.00348

 Side 1  free  transition at x/c =  0.6962   73
 Side 2  free  transition at x/c =  0.4184   51

  10   rms: 0.3960E+00   max: -.7895E+01   C at   51  2   RLX: 0.063
       a =  0.500      CL =  0.4999
      Cm = -0.0834     CD =  0.00970   =>   CDf =  0.00622    CDp =  0.00349

 Side 1  free  transition at x/c =  0.6960   73
 Side 2  free  transition at x/c =  0.4485   53

  11   rms: 0.7942E+00   max: -.1553E+02   C at   53  2   RLX: 0.032
       a =  0.500      CL =  0.4998
      Cm = -0.0833     CD =  0.00961   =>   CDf =  0.00613    CDp =  0.00349

 Side 1  free  transition at x/c =  0.6958   73
 Side 2  free  transition at x/c =  0.4660   54

  12   rms: 0.9119E+00   max: -.1748E+02   C at   54  2   RLX: 0.029
       a =  0.500      CL =  0.5000
      Cm = -0.0834     CD =  0.00957   =>   CDf =  0.00607    CDp =  0.00349

 Side 1  free  transition at x/c =  0.6957   73
 Side 2  free  transition at x/c =  0.4834   55

  13   rms: 0.9849E+00   max: -.1860E+02   C at   55  2   RLX: 0.027
       a =  0.500      CL =  0.5002
      Cm = -0.0834     CD =  0.00952   =>   CDf =  0.00602    CDp =  0.00350

 Side 1  free  transition at x/c =  0.6956   73
 Side 2  free  transition at x/c =  0.5003   57

  14   rms: 0.8567E+00   max: -.1718E+02   C at   57  2   RLX: 0.029
       a =  0.500      CL =  0.5004
      Cm = -0.0834     CD =  0.00947   =>   CDf =  0.00597    CDp =  0.00349

 Side 1  free  transition at x/c =  0.6955   73
 Side 2  free  transition at x/c =  0.5188   58

  15   rms: 0.9705E+00   max: -.1907E+02   C at   58  2   RLX: 0.026
       a =  0.500      CL =  0.5005
      Cm = -0.0835     CD =  0.00942   =>   CDf =  0.00592    CDp =  0.00350

 Side 1  free  transition at x/c =  0.6955   73
 Side 2  free  transition at x/c =  0.5389   59

  16   rms: 0.1123E+01   max: -.2138E+02   C at   59  2   RLX: 0.023
       a =  0.500      CL =  0.5006
      Cm = -0.0835     CD =  0.00936   =>   CDf =  0.00585    CDp =  0.00351

 Side 1  free  transition at x/c =  0.6954   73
 Side 2  free  transition at x/c =  0.5592   60

  17   rms: 0.1239E+01   max: -.2285E+02   C at   60  2   RLX: 0.022
       a =  0.500      CL =  0.5006
      Cm = -0.0835     CD =  0.00930   =>   CDf =  0.00579    CDp =  0.00351

 Side 1  free  transition at x/c =  0.6953   73
 Side 2  free  transition at x/c =  0.5795   62

  18   rms: 0.1098E+01   max: -.2111E+02   C at   62  2   RLX: 0.024
       a =  0.500      CL =  0.5006
      Cm = -0.0835     CD =  0.00924   =>   CDf =  0.00573    CDp =  0.00351

 Side 1  free  transition at x/c =  0.6953   73
 Side 2  free  transition at x/c =  0.5995   63

  19   rms: 0.1136E+01   max: -.2128E+02   C at   63  2   RLX: 0.024
       a =  0.500      CL =  0.5006
      Cm = -0.0835     CD =  0.00918   =>   CDf =  0.00566    CDp =  0.00352

 Side 1  free  transition at x/c =  0.6952   73
 Side 2  free  transition at x/c =  0.6204   64

  20   rms: 0.1174E+01   max: -.2131E+02   C at   64  2   RLX: 0.023
       a =  0.500      CL =  0.5005
      Cm = -0.0835     CD =  0.00912   =>   CDf =  0.00560    CDp =  0.00352

 Side 1  free  transition at x/c =  0.6952   73
 Side 2  free  transition at x/c =  0.6409   66

  21   rms: 0.9689E+00   max: -.1831E+02   C at   66  2   RLX: 0.027
       a =  0.500      CL =  0.5004
      Cm = -0.0834     CD =  0.00905   =>   CDf =  0.00553    CDp =  0.00352

 Side 1  free  transition at x/c =  0.6952   73
 Side 2  free  transition at x/c =  0.6621   67

  22   rms: 0.9658E+00   max: -.1765E+02   C at   67  2   RLX: 0.028
       a =  0.500      CL =  0.5002
      Cm = -0.0834     CD =  0.00899   =>   CDf =  0.00546    CDp =  0.00353

 Side 1  free  transition at x/c =  0.6951   73
 Side 2  free  transition at x/c =  0.6839   69

  23   rms: 0.7814E+00   max: -.1480E+02   C at   69  2   RLX: 0.034
       a =  0.500      CL =  0.5000
      Cm = -0.0833     CD =  0.00891   =>   CDf =  0.00539    CDp =  0.00352

 Side 1  free  transition at x/c =  0.6951   73
 Side 2  free  transition at x/c =  0.7056   70

  24   rms: 0.7197E+00   max: -.1312E+02   C at   70  2   RLX: 0.038
       a =  0.500      CL =  0.4996
      Cm = -0.0832     CD =  0.00884   =>   CDf =  0.00531    CDp =  0.00353

 Side 1  free  transition at x/c =  0.6950   73
 Side 2  free  transition at x/c =  0.7283   71

  25   rms: 0.6664E+00   max: -.1167E+02   C at   71  2   RLX: 0.043
       a =  0.500      CL =  0.4992
      Cm = -0.0830     CD =  0.00878   =>   CDf =  0.00524    CDp =  0.00354

 Side 1  free  transition at x/c =  0.6950   73
 Side 2  free  transition at x/c =  0.7501   73

  26   rms: 0.4789E+00   max: -.8692E+01   C at   73  2   RLX: 0.058
       a =  0.500      CL =  0.4986
      Cm = -0.0828     CD =  0.00870   =>   CDf =  0.00517    CDp =  0.00354

 Side 1  free  transition at x/c =  0.6950   73
 Side 2  free  transition at x/c =  0.7726   74

  27   rms: 0.4193E+00   max: -.7308E+01   C at   74  2   RLX: 0.068
       a =  0.500      CL =  0.4979
      Cm = -0.0826     CD =  0.00863   =>   CDf =  0.00509    CDp =  0.00354

 Side 1  free  transition at x/c =  0.6949   73
 Side 2  free  transition at x/c =  0.7945   76

  28   rms: 0.2890E+00   max: -.5215E+01   C at   76  2   RLX: 0.096
       a =  0.500      CL =  0.4969
      Cm = -0.0822     CD =  0.00856   =>   CDf =  0.00502    CDp =  0.00354

 Side 1  free  transition at x/c =  0.6948   73
 Side 2  free  transition at x/c =  0.8170   77

  29   rms: 0.2457E+00   max: -.4253E+01   C at   77  2   RLX: 0.118
       a =  0.500      CL =  0.4959
      Cm = -0.0818     CD =  0.00850   =>   CDf =  0.00495    CDp =  0.00354

 Side 1  free  transition at x/c =  0.6947   73
 Side 2  free  transition at x/c =  0.8396   79

  30   rms: 0.1736E+00   max: -.3055E+01   C at   79  2   RLX: 0.164
       a =  0.500      CL =  0.4945
      Cm = -0.0812     CD =  0.00842   =>   CDf =  0.00489    CDp =  0.00353

 Side 1  free  transition at x/c =  0.6946   73
 Side 2  free  transition at x/c =  0.8621   80

  31   rms: 0.1614E+00   max: -.2674E+01   C at   80  2   RLX: 0.187
       a =  0.500      CL =  0.4932
      Cm = -0.0808     CD =  0.00836   =>   CDf =  0.00484    CDp =  0.00352

 Side 1  free  transition at x/c =  0.6945   73
 Side 2  free  transition at x/c =  0.8850   82

  32   rms: 0.1730E+00   max: -.2768E+01   C at   82  2   RLX: 0.181
       a =  0.500      CL =  0.4922
      Cm = -0.0803     CD =  0.00829   =>   CDf =  0.00480    CDp =  0.00349

 Side 1  free  transition at x/c =  0.6944   73
 Side 2  free  transition at x/c =  0.9110   84

  33   rms: 0.6831E+00   max: -.9684E+01   C at   84  2   RLX: 0.052
       a =  0.500      CL =  0.4920
      Cm = -0.0802     CD =  0.00822   =>   CDf =  0.00476    CDp =  0.00345

 Side 1  free  transition at x/c =  0.6944   73
 Side 2  free  transition at x/c =  0.9408   86

  34   rms: 0.3220E+00   max: 0.3820E+01   C at   86  2   RLX: 0.393
       a =  0.500      CL =  0.4900
      Cm = -0.0797     CD =  0.00847   =>   CDf =  0.00474    CDp =  0.00372

 Side 1  free  transition at x/c =  0.6943   73
 Side 2  free  transition at x/c =  0.8608   80

  35   rms: 0.1712E+00   max: -.2874E+01   C at   80  2   RLX: 0.174
       a =  0.500      CL =  0.4899
      Cm = -0.0797     CD =  0.00836   =>   CDf =  0.00486    CDp =  0.00350

 Side 1  free  transition at x/c =  0.6942   73
 Side 2  free  transition at x/c =  0.8865   82

  36   rms: 0.2033E+00   max: -.3233E+01   C at   82  2   RLX: 0.155
       a =  0.500      CL =  0.4896
      Cm = -0.0795     CD =  0.00828   =>   CDf =  0.00481    CDp =  0.00348

 Side 1  free  transition at x/c =  0.6942   73
 Side 2  free  transition at x/c =  0.9127   84

  37   rms: 0.5214E+02   max: 0.7197E+03   C at   84  2   RLX: 0.002
       a =  0.500      CL =  0.4894
      Cm = -0.0797     CD =  0.00853   =>   CDf =  0.00477    CDp =  0.00376

 Side 1  free  transition at x/c =  0.6942   73
 Side 2  free  transition at x/c =  0.8456   79

  38   rms: 0.1747E+00   max: -.3004E+01   C at   79  2   RLX: 0.166
       a =  0.500      CL =  0.4894
      Cm = -0.0797     CD =  0.00839   =>   CDf =  0.00490    CDp =  0.00350

 Side 1  free  transition at x/c =  0.6942   73
 Side 2  free  transition at x/c =  0.8710   81

  39   rms: 0.1494E+00   max: -.2494E+01   C at   81  2   RLX: 0.200
       a =  0.500      CL =  0.4890
      Cm = -0.0794     CD =  0.00832   =>   CDf =  0.00483    CDp =  0.00348

 Side 1  free  transition at x/c =  0.6941   73
 Side 2  free  transition at x/c =  0.8960   83

  40   rms: 0.2804E+00   max: -.4250E+01   C at   83  2   RLX: 0.118
       a =  0.500      CL =  0.4888
      Cm = -0.0792     CD =  0.00824   =>   CDf =  0.00479    CDp =  0.00346

 Side 1  free  transition at x/c =  0.6941   73
 Side 2  free  transition at x/c =  0.9184   84

  41   rms: 0.1029E+01   max: 0.1342E+02   C at   84  2   RLX: 0.112
       a =  0.500      CL =  0.4886
      Cm = -0.0794     CD =  0.00850   =>   CDf =  0.00476    CDp =  0.00374

 Side 1  free  transition at x/c =  0.6941   73
 Side 2  free  transition at x/c =  0.8455   79

  42   rms: 0.1760E+00   max: -.3030E+01   C at   79  2   RLX: 0.165
       a =  0.500      CL =  0.4887
      Cm = -0.0795     CD =  0.00839   =>   CDf =  0.00490    CDp =  0.00349

 Side 1  free  transition at x/c =  0.6941   73
 Side 2  free  transition at x/c =  0.8703   81

  43   rms: 0.1496E+00   max: -.2510E+01   C at   81  2   RLX: 0.199
       a =  0.500      CL =  0.4885
      Cm = -0.0793     CD =  0.00832   =>   CDf =  0.00484    CDp =  0.00348

 Side 1  free  transition at x/c =  0.6941   73
 Side 2  free  transition at x/c =  0.8945   82

  44   rms: 0.3041E+00   max: -.4514E+01   C at   82  2   RLX: 0.111
       a =  0.500      CL =  0.4884
      Cm = -0.0791     CD =  0.00826   =>   CDf =  0.00479    CDp =  0.00347

 Side 1  free  transition at x/c =  0.6941   73
 Side 2  free  transition at x/c =  0.9177   84

  45   rms: 0.9750E+00   max: 0.1267E+02   C at   84  2   RLX: 0.118
       a =  0.500      CL =  0.4882
      Cm = -0.0793     CD =  0.00850   =>   CDf =  0.00476    CDp =  0.00373

 Side 1  free  transition at x/c =  0.6941   73
 Side 2  free  transition at x/c =  0.8495   79

  46   rms: 0.1787E+00   max: -.3015E+01   C at   79  2   RLX: 0.166
       a =  0.500      CL =  0.4884
      Cm = -0.0794     CD =  0.00838   =>   CDf =  0.00489    CDp =  0.00349

 Side 1  free  transition at x/c =  0.6941   73
 Side 2  free  transition at x/c =  0.8738   81

  47   rms: 0.1571E+00   max: -.2581E+01   C at   81  2   RLX: 0.194
       a =  0.500      CL =  0.4882
      Cm = -0.0792     CD =  0.00831   =>   CDf =  0.00483    CDp =  0.00348

 Side 1  free  transition at x/c =  0.6941   73
 Side 2  free  transition at x/c =  0.8980   83

  48   rms: 0.3375E+00   max: -.5025E+01   C at   83  2   RLX: 0.099
       a =  0.500      CL =  0.4882
      Cm = -0.0790     CD =  0.00824   =>   CDf =  0.00479    CDp =  0.00345

 Side 1  free  transition at x/c =  0.6941   73
 Side 2  free  transition at x/c =  0.9198   84

  49   rms: 0.6873E+00   max: 0.8770E+01   C at   84  2   RLX: 0.171
       a =  0.500      CL =  0.4880
      Cm = -0.0792     CD =  0.00849   =>   CDf =  0.00476    CDp =  0.00373

 Side 1  free  transition at x/c =  0.6940   73
 Side 2  free  transition at x/c =  0.8538   80

  50   rms: 0.1533E+00   max: -.2685E+01   C at   80  2   RLX: 0.186
       a =  0.500      CL =  0.4881
      Cm = -0.0792     CD =  0.00836   =>   CDf =  0.00488    CDp =  0.00348

 Side 1  free  transition at x/c =  0.6940   73
 Side 2  free  transition at x/c =  0.8782   81

  51   rms: 0.1760E+00   max: -.2816E+01   C at   81  2   RLX: 0.178
       a =  0.500      CL =  0.4881
      Cm = -0.0791     CD =  0.00830   =>   CDf =  0.00482    CDp =  0.00348

 Side 1  free  transition at x/c =  0.6940   73
 Side 2  free  transition at x/c =  0.9030   83

  52   rms: 0.6011E+00   max: -.8599E+01   C at   83  2   RLX: 0.058
       a =  0.500      CL =  0.4881
      Cm = -0.0790     CD =  0.00823   =>   CDf =  0.00478    CDp =  0.00345

 Side 1  free  transition at x/c =  0.6940   73
 Side 2  free  transition at x/c =  0.9248   85

  53   rms: 0.4241E+00   max: 0.5271E+01   C at   85  2   RLX: 0.285
       a =  0.500      CL =  0.4877
      Cm = -0.0791     CD =  0.00848   =>   CDf =  0.00476    CDp =  0.00372

 Side 1  free  transition at x/c =  0.6940   72
 Side 2  free  transition at x/c =  0.8527   80

  54   rms: 0.1556E+00   max: -.2745E+01   C at   80  2   RLX: 0.182
       a =  0.500      CL =  0.4880
[...]
 plradd ia,ip,cpol           90           0 -1.94842119E-06
 Point written to save file  xfoil.polar                                     
 Dump file unspecified or not available
 Calculating wake trajectory ...
 Calculating source influence matrix ...

 Solving BL system ...

 Side 1  free  transition at x/c =  0.0565   47
 Side 2 forced transition at x/c =  1.0000   77

   1   rms: 0.3264E-01   max: 0.1356E+00   D at   74  1   RLX: 0.492
       a = 18.750      CL =  1.6448
      Cm = -0.0453     CD =  0.09987   =>   CDf =  0.00443    CDp =  0.09544

 Side 1  free  transition at x/c =  0.0558   47
 Side 2 forced transition at x/c =  1.0000   77

   2   rms: 0.1707E-01   max: 0.7208E-01   D at   75  1
       a = 18.750      CL =  1.6413
      Cm = -0.0465     CD =  0.10261   =>   CDf =  0.00438    CDp =  0.09823

 Side 1  free  transition at x/c =  0.0553   47
 Side 2 forced transition at x/c =  1.0000   77

   3   rms: 0.5387E-02   max: 0.2754E-01   D at  100  2
       a = 18.750      CL =  1.6367
      Cm = -0.0462     CD =  0.10216   =>   CDf =  0.00434    CDp =  0.09782

 Side 1  free  transition at x/c =  0.0554   47
 Side 2 forced transition at x/c =  1.0000   77

   4   rms: 0.9154E-03   max: 0.6472E-02   D at  100  2
       a = 18.750      CL =  1.6358
      Cm = -0.0461     CD =  0.10201   =>   CDf =  0.00433    CDp =  0.09768

 Side 1  free  transition at x/c =  0.0555   47
 Side 2 forced transition at x/c =  1.0000   77

   5   rms: 0.1308E-03   max: 0.8777E-03   D at  100  2
       a = 18.750      CL =  1.6357
      Cm = -0.0461     CD =  0.10199   =>   CDf =  0.00433    CDp =  0.09766

 Side 1  free  transition at x/c =  0.0555   47
 Side 2 forced transition at x/c =  1.0000   77

   6   rms: 0.2047E-04   max: 0.1241E-03   D at  100  2
       a = 18.750      CL =  1.6356
      Cm = -0.0461     CD =  0.10199   =>   CDf =  0.00433    CDp =  0.09766
 plradd ia,ip,cpol           91           0 -1.94842119E-06

 Point added to stored polar  1
 plradd ia,ip,cpol           91           0 -1.94842119E-06
 Point written to save file  xfoil.polar                                     
 Dump file unspecified or not available
 Calculating wake trajectory ...
 Calculating source influence matrix ...

 Solving BL system ...

 Side 1  free  transition at x/c =  0.0555   47
 Side 2 forced transition at x/c =  1.0000   77

   1   rms: 0.3097E-01   max: 0.1279E+00   D at   73  1   RLX: 0.475
       a = 19.000      CL =  1.6356
      Cm = -0.0474     CD =  0.10496   =>   CDf =  0.00433    CDp =  0.10063

 Side 1  free  transition at x/c =  0.0549   47
 Side 2 forced transition at x/c =  1.0000   77

   2   rms: 0.1690E-01   max: 0.7313E-01   D at   74  1
       a = 19.000      CL =  1.6318
      Cm = -0.0486     CD =  0.10787   =>   CDf =  0.00430    CDp =  0.10357

 Side 1  free  transition at x/c =  0.0544   47
 Side 2 forced transition at x/c =  1.0000   77

   3   rms: 0.4515E-02   max: 0.2647E-01   D at  100  2
       a = 19.000      CL =  1.6278
      Cm = -0.0483     CD =  0.10719   =>   CDf =  0.00427    CDp =  0.10291

 Side 1  free  transition at x/c =  0.0545   47
 Side 2 forced transition at x/c =  1.0000   77

   4   rms: 0.7985E-03   max: 0.6937E-02   D at  100  2
       a = 19.000      CL =  1.6271
      Cm = -0.0482     CD =  0.10705   =>   CDf =  0.00426    CDp =  0.10279

 Side 1  free  transition at x/c =  0.0545   47
 Side 2 forced transition at x/c =  1.0000   77

   5   rms: 0.1300E-03   max: 0.1010E-02   D at  100  2
       a = 19.000      CL =  1.6270
      Cm = -0.0482     CD =  0.10704   =>   CDf =  0.00426    CDp =  0.10278

 Side 1  free  transition at x/c =  0.0545   47
 Side 2 forced transition at x/c =  1.0000   77

   6   rms: 0.2640E-04   max: 0.1603E-03   D at  100  2
       a = 19.000      CL =  1.6270
      Cm = -0.0482     CD =  0.10703   =>   CDf =  0.00426    CDp =  0.10278
 plradd ia,ip,cpol           92           0 -1.94842119E-06

 Point added to stored polar  1
 plradd ia,ip,cpol           92           0 -1.94842119E-06
 Point written to save file  xfoil.polar                                     
 Dump file unspecified or not available
 Calculating wake trajectory ...
 Calculating source influence matrix ...

 Solving BL system ...

 Side 1  free  transition at x/c =  0.0545   47
 Side 2 forced transition at x/c =  1.0000   77

   1   rms: 0.2813E-01   max: 0.1055E+00   D at   72  1   RLX: 0.460
       a = 19.250      CL =  1.6274
      Cm = -0.0492     CD =  0.10960   =>   CDf =  0.00426    CDp =  0.10533

 Side 1  free  transition at x/c =  0.0540   47
 Side 2 forced transition at x/c =  1.0000   77

   2   rms: 0.1405E-01   max: 0.4542E-01   D at   73  1
       a = 19.250      CL =  1.6264
      Cm = -0.0498     CD =  0.11164   =>   CDf =  0.00426    CDp =  0.10738

 Side 1  free  transition at x/c =  0.0534   47
 Side 2 forced transition at x/c =  1.0000   77

   3   rms: 0.3274E-02   max: 0.2219E-01   D at  100  2
       a = 19.250      CL =  1.6234
      Cm = -0.0493     CD =  0.11086   =>   CDf =  0.00428    CDp =  0.10659

 Side 1  free  transition at x/c =  0.0534   47
 Side 2 forced transition at x/c =  1.0000   77

   4   rms: 0.3530E-03   max: 0.2406E-02   D at  100  2
       a = 19.250      CL =  1.6231
      Cm = -0.0493     CD =  0.11083   =>   CDf =  0.00428    CDp =  0.10654

 Side 1  free  transition at x/c =  0.0534   47
 Side 2 forced transition at x/c =  1.0000   77

   5   rms: 0.4690E-04   max: 0.1799E-03   D at  102  2
       a = 19.250      CL =  1.6230
      Cm = -0.0493     CD =  0.11082   =>   CDf =  0.00428    CDp =  0.10654
 plradd ia,ip,cpol           93           0 -1.94842119E-06

 Point added to stored polar  1
 plradd ia,ip,cpol           93           0 -1.94842119E-06
 Point written to save file  xfoil.polar                                     
 Dump file unspecified or not available
 Calculating wake trajectory ...
 Calculating source influence matrix ...

 Solving BL system ...

 Side 1  free  transition at x/c =  0.0534   47
 Side 2 forced transition at x/c =  1.0000   77

   1   rms: 0.3112E-01   max: 0.1699E+00   T at   47  1   RLX: 0.449
       a = 19.500      CL =  1.6267
      Cm = -0.0488     CD =  0.11144   =>   CDf =  0.00429    CDp =  0.10715

 Side 1  free  transition at x/c =  0.0527   46
 Side 2 forced transition at x/c =  1.0000   77

   2   rms: 0.4046E-01   max: 0.2245E+00   D at   73  1
       a = 19.500      CL =  1.6153
      Cm = -0.0540     CD =  0.12010   =>   CDf =  0.00424    CDp =  0.11586

 Side 1  free  transition at x/c =  0.0525   46
 Side 2 forced transition at x/c =  1.0000   77

   3   rms: 0.1002E-01   max: 0.5651E-01   D at   72  1
       a = 19.500      CL =  1.6075
      Cm = -0.0530     CD =  0.11819   =>   CDf =  0.00406    CDp =  0.11413

 Side 1  free  transition at x/c =  0.0527   46
 Side 2 forced transition at x/c =  1.0000   77

   4   rms: 0.1118E-02   max: 0.8692E-02   D at   99  2
       a = 19.500      CL =  1.6063
      Cm = -0.0528     CD =  0.11769   =>   CDf =  0.00407    CDp =  0.11362

 Side 1  free  transition at x/c =  0.0527   46
 Side 2 forced transition at x/c =  1.0000   77

   5   rms: 0.4550E-04   max: 0.3950E-03   D at  100  2
       a = 19.500      CL =  1.6063
      Cm = -0.0528     CD =  0.11766   =>   CDf =  0.00407    CDp =  0.11359
 plradd ia,ip,cpol           94           0 -1.94842119E-06

 Point added to stored polar  1
 plradd ia,ip,cpol           94           0 -1.94842119E-06
 Point written to save file  xfoil.polar                                     
 Dump file unspecified or not available
 Calculating wake trajectory ...
 Calculating source influence matrix ...

 Solving BL system ...

 Side 1  free  transition at x/c =  0.0527   46
 Side 2 forced transition at x/c =  1.0000   77

   1   rms: 0.3965E-01   max: 0.1933E+00   D at   69  1   RLX: 0.426
       a = 19.750      CL =  1.6030
      Cm = -0.0548     CD =  0.12170   =>   CDf =  0.00408    CDp =  0.11762

 Side 1  free  transition at x/c =  0.0523   46
 Side 2 forced transition at x/c =  1.0000   77

   2   rms: 0.2269E-01   max: 0.1092E+00   D at   70  1
       a = 19.750      CL =  1.5962
      Cm = -0.0570     CD =  0.12612   =>   CDf =  0.00398    CDp =  0.12214

 Side 1  free  transition at x/c =  0.0518   46
 Side 2 forced transition at x/c =  1.0000   77

   3   rms: 0.6448E-02   max: 0.3511E-01   D at  100  2
       a = 19.750      CL =  1.5909
      Cm = -0.0566     CD =  0.12496   =>   CDf =  0.00388    CDp =  0.12108

 Side 1  free  transition at x/c =  0.0519   46
 Side 2 forced transition at x/c =  1.0000   77

   4   rms: 0.8604E-03   max: 0.6580E-02   D at  101  2
       a = 19.750      CL =  1.5900
      Cm = -0.0564     CD =  0.12459   =>   CDf =  0.00388    CDp =  0.12071

 Side 1  free  transition at x/c =  0.0520   46
 Side 2 forced transition at x/c =  1.0000   77

   5   rms: 0.5182E-04   max: 0.5029E-03   D at  100  2
       a = 19.750      CL =  1.5900
      Cm = -0.0564     CD =  0.12457   =>   CDf =  0.00389    CDp =  0.12068
 plradd ia,ip,cpol           95           0 -1.94842119E-06

 Point added to stored polar  1
 plradd ia,ip,cpol           95           0 -1.94842119E-06
 Point written to save file  xfoil.polar                                     
 Dump file unspecified or not available
 Calculating wake trajectory ...
 Calculating source influence matrix ...

 Solving BL system ...

 Side 1  free  transition at x/c =  0.0520   46
 Side 2 forced transition at x/c =  1.0000   77

   1   rms: 0.3683E-01   max: 0.1793E+00   D at   67  1   RLX: 0.411
       a = 20.000      CL =  1.5873
      Cm = -0.0583     CD =  0.12832   =>   CDf =  0.00389    CDp =  0.12443

 Side 1  free  transition at x/c =  0.0515   46
 Side 2 forced transition at x/c =  1.0000   77

   2   rms: 0.2298E-01   max: 0.1103E+00   D at   69  1
       a = 20.000      CL =  1.5810
      Cm = -0.0607     CD =  0.13310   =>   CDf =  0.00382    CDp =  0.12929

 Side 1  free  transition at x/c =  0.0510   46
 Side 2 forced transition at x/c =  1.0000   77

   3   rms: 0.6725E-02   max: 0.3618E-01   D at  100  2
       a = 20.000      CL =  1.5756
      Cm = -0.0603     CD =  0.13183   =>   CDf =  0.00372    CDp =  0.12810

 Side 1  free  transition at x/c =  0.0511   46
 Side 2 forced transition at x/c =  1.0000   77

   4   rms: 0.9761E-03   max: 0.8593E-02   D at  101  2
       a = 20.000      CL =  1.5746
      Cm = -0.0601     CD =  0.13138   =>   CDf =  0.00372    CDp =  0.12766

 Side 1  free  transition at x/c =  0.0512   46
 Side 2 forced transition at x/c =  1.0000   77

   5   rms: 0.6379E-04   max: 0.6361E-03   D at  101  2
       a = 20.000      CL =  1.5746
      Cm = -0.0601     CD =  0.13135   =>   CDf =  0.00372    CDp =  0.12762
 plradd ia,ip,cpol           96           0 -1.94842119E-06

 Point added to stored polar  1
 plradd ia,ip,cpol           96           0 -1.94842119E-06
 Point written to save file  xfoil.polar                                     
 Dump file unspecified or not available

.OPERva   c>  
        airfoil                    Re           Mach       Ncrit  XtripT  XtripB     file
       ------------------------  ------------  ----------  -----  ------  ------    -------------------
 >  1  ARA-D 10% AIRFOIL         3.611e5       0.059        9.00   1.000   1.000  > xfoil.polar

Specify polar to sort (0 = all, -1 = abort)   i>  
.OPERva   c>  
 ==============================================================
 Polar  1
  
       XFOIL         Version 6.99
  
 Calculated polar for: ARA-D 10% AIRFOIL                               
  
 1 1 Reynolds number fixed          Mach number fixed         
  
 xtrf =   1.000 (top)        1.000 (bottom)  
 Mach =   0.059     Re =     0.361 e 6     Ncrit =   9.000
  
   alpha    CL        CD       CDp       CM      Cpmin   Top_Xtr  Bot_Xtr
  ------ -------- --------- --------- -------- -------- -------- --------
  -4.000   0.0035   0.01283   0.00631  -0.0890  -2.5291   0.9618   0.0557
  -3.750   0.0347   0.01261   0.00607  -0.0894  -2.3534   0.9536   0.0612
  -3.500   0.0634   0.01232   0.00582  -0.0892  -2.1842   0.9436   0.0668
  -3.250   0.0908   0.01207   0.00556  -0.0887  -2.0302   0.9329   0.0730
  -3.000   0.1178   0.01197   0.00540  -0.0880  -1.8808   0.9214   0.0790
  -2.750   0.1446   0.01169   0.00516  -0.0873  -1.7266   0.9103   0.0857
  -2.500   0.1714   0.01144   0.00491  -0.0867  -1.5803   0.8978   0.0929
  -2.250   0.1982   0.01131   0.00473  -0.0859  -1.4433   0.8837   0.1008
  -2.000   0.2249   0.01111   0.00453  -0.0852  -1.3048   0.8655   0.1104
  -1.750   0.2517   0.01093   0.00432  -0.0845  -1.1648   0.8462   0.1205
  -1.500   0.2793   0.01079   0.00415  -0.0840  -1.0312   0.8288   0.1318
  -1.250   0.3073   0.01069   0.00400  -0.0837  -0.9118   0.8124   0.1438
  -1.000   0.3355   0.01061   0.00388  -0.0834  -0.7950   0.7949   0.1568
  -0.750   0.3639   0.01053   0.00378  -0.0832  -0.7015   0.7777   0.1708
  -0.500   0.3924   0.01045   0.00369  -0.0831  -0.7395   0.7608   0.1868
  -0.250   0.4210   0.01037   0.00362  -0.0830  -0.7782   0.7439   0.2061
   0.000   0.4495   0.01029   0.00356  -0.0829  -0.8198   0.7263   0.2316
   0.000   0.4495   0.01029   0.00356  -0.0829  -0.8198   0.7263   0.2316
   0.250   0.4781   0.01014   0.00351  -0.0830  -0.8621   0.7094   0.2798
   0.750   0.5262   0.00821   0.00331  -0.0808  -0.9417   0.6741   1.0000
   1.000   0.5548   0.00835   0.00331  -0.0807  -0.9873   0.6550   1.0000
   1.500   0.6116   0.00867   0.00334  -0.0805  -1.0814   0.6143   1.0000
   1.750   0.6399   0.00885   0.00338  -0.0804  -1.1306   0.5921   1.0000
   2.000   0.6681   0.00904   0.00344  -0.0803  -1.1814   0.5682   1.0000
   2.250   0.6961   0.00926   0.00351  -0.0802  -1.2347   0.5423   1.0000
   2.500   0.7239   0.00950   0.00360  -0.0801  -1.2877   0.5135   1.0000
   2.750   0.7514   0.00978   0.00371  -0.0799  -1.3440   0.4810   1.0000
   3.000   0.7785   0.01013   0.00385  -0.0798  -1.4026   0.4449   1.0000
   3.250   0.8054   0.01052   0.00403  -0.0796  -1.4580   0.4041   1.0000
   3.500   0.8320   0.01096   0.00424  -0.0794  -1.5166   0.3630   1.0000
   3.750   0.8584   0.01144   0.00449  -0.0792  -1.5801   0.3271   1.0000
   4.000   0.8849   0.01189   0.00476  -0.0791  -1.6402   0.2999   1.0000
   4.250   0.9116   0.01229   0.00503  -0.0789  -1.7043   0.2785   1.0000
   4.500   0.9383   0.01269   0.00532  -0.0788  -1.7692   0.2619   1.0000
   4.750   0.9651   0.01307   0.00561  -0.0786  -1.8364   0.2484   1.0000
   5.000   0.9918   0.01343   0.00590  -0.0785  -1.9085   0.2367   1.0000
   5.250   1.0183   0.01380   0.00622  -0.0783  -1.9779   0.2270   1.0000
   5.500   1.0446   0.01419   0.00653  -0.0781  -2.0484   0.2179   1.0000
   5.750   1.0713   0.01451   0.00684  -0.0779  -2.1269   0.2101   1.0000
   6.000   1.0968   0.01496   0.00721  -0.0776  -2.2038   0.2024   1.0000
   6.250   1.1236   0.01524   0.00753  -0.0774  -2.2845   0.1959   1.0000
   6.500   1.1486   0.01572   0.00792  -0.0770  -2.3637   0.1895   1.0000
   6.750   1.1751   0.01600   0.00826  -0.0768  -2.4519   0.1835   1.0000
   7.000   1.2001   0.01643   0.00865  -0.0764  -2.5362   0.1778   1.0000
   7.250   1.2254   0.01683   0.00907  -0.0760  -2.6249   0.1725   1.0000
   7.500   1.2507   0.01720   0.00945  -0.0756  -2.7172   0.1671   1.0000
   7.750   1.2743   0.01775   0.00995  -0.0750  -2.8034   0.1620   1.0000
   8.000   1.2996   0.01806   0.01034  -0.0747  -2.9005   0.1572   1.0000
   8.250   1.3234   0.01852   0.01078  -0.0741  -2.9991   0.1525   1.0000
   8.500   1.3467   0.01904   0.01131  -0.0735  -3.0959   0.1480   1.0000
   8.750   1.3709   0.01941   0.01175  -0.0729  -3.2054   0.1436   1.0000
   9.000   1.3930   0.01997   0.01227  -0.0721  -3.3087   0.1393   1.0000
   9.250   1.4156   0.02048   0.01284  -0.0714  -3.4221   0.1353   1.0000
   9.500   1.4384   0.02090   0.01332  -0.0706  -3.5324   0.1313   1.0000
   9.750   1.4588   0.02151   0.01390  -0.0696  -3.6488   0.1275   1.0000
  10.000   1.4796   0.02209   0.01455  -0.0686  -3.7571   0.1239   1.0000
  10.250   1.5006   0.02255   0.01510  -0.0676  -3.8735   0.1203   1.0000
  10.500   1.5194   0.02316   0.01570  -0.0664  -3.9888   0.1169   1.0000
  10.750   1.5367   0.02392   0.01649  -0.0649  -4.1007   0.1136   1.0000
  11.000   1.5555   0.02444   0.01712  -0.0636  -4.2169   0.1104   1.0000
  11.250   1.5723   0.02505   0.01777  -0.0620  -4.3317   0.1073   1.0000
  11.500   1.5840   0.02606   0.01875  -0.0598  -4.4317   0.1043   1.0000
  11.750   1.5977   0.02668   0.01951  -0.0577  -4.5364   0.1019   1.0000
  12.000   1.6101   0.02743   0.02035  -0.0555  -4.6412   0.0992   1.0000
  12.250   1.6210   0.02831   0.02129  -0.0533  -4.7412   0.0968   1.0000
  12.500   1.6282   0.02964   0.02259  -0.0509  -4.8334   0.0943   1.0000
  12.750   1.6403   0.03056   0.02367  -0.0491  -4.9401   0.0921   1.0000
  13.000   1.6512   0.03160   0.02483  -0.0474  -5.0443   0.0897   1.0000
  13.250   1.6606   0.03279   0.02608  -0.0457  -5.1459   0.0875   1.0000
  13.500   1.6667   0.03435   0.02765  -0.0438  -5.2356   0.0854   1.0000
  13.750   1.6741   0.03587   0.02929  -0.0422  -5.3698   0.0836   1.0000
  14.000   1.6822   0.03735   0.03091  -0.0408  -5.5242   0.0816   1.0000
  14.250   1.6891   0.03897   0.03263  -0.0395  -5.6736   0.0796   1.0000
  14.500   1.6943   0.04080   0.03452  -0.0383  -5.8210   0.0779   1.0000
  14.750   1.6956   0.04308   0.03679  -0.0369  -5.9451   0.0760   1.0000
  15.000   1.7000   0.04515   0.03906  -0.0361  -6.0826   0.0745   1.0000
  15.250   1.7034   0.04740   0.04145  -0.0354  -6.2163   0.0728   1.0000
  15.500   1.7057   0.04981   0.04398  -0.0349  -6.3463   0.0712   1.0000
  15.750   1.7066   0.05243   0.04667  -0.0346  -6.4752   0.0697   1.0000
  16.000   1.7045   0.05537   0.04962  -0.0341  -6.5790   0.0681   1.0000
  16.250   1.7024   0.05853   0.05294  -0.0340  -6.6854   0.0668   1.0000
  16.500   1.7000   0.06188   0.05647  -0.0343  -6.7917   0.0654   1.0000
  16.750   1.6969   0.06539   0.06012  -0.0349  -6.9041   0.0640   1.0000
  17.000   1.6932   0.06907   0.06390  -0.0356  -6.9946   0.0627   1.0000
  17.250   1.6881   0.07300   0.06790  -0.0364  -7.0798   0.0615   1.0000
  17.500   1.6826   0.07674   0.07164  -0.0367  -7.1714   0.0602   1.0000
  17.750   1.6739   0.08157   0.07667  -0.0383  -7.2416   0.0594   1.0000
  18.000   1.6645   0.08649   0.08178  -0.0400  -7.2940   0.0585   1.0000
  18.250   1.6547   0.09163   0.08707  -0.0419  -7.3387   0.0574   1.0000
  18.500   1.6451   0.09675   0.09233  -0.0438  -7.3743   0.0565   1.0000
  18.750   1.6356   0.10199   0.09766  -0.0461  -7.4204   0.0555   1.0000
  19.000   1.6270   0.10703   0.10278  -0.0482  -7.4856   0.0545   1.0000
  19.250   1.6230   0.11082   0.10654  -0.0493  -7.5635   0.0534   1.0000
  19.500   1.6063   0.11766   0.11359  -0.0528  -7.5539   0.0527   1.0000
  19.750   1.5900   0.12457   0.12068  -0.0564  -7.5117   0.0520   1.0000
  20.000   1.5746   0.13135   0.12762  -0.0601  -7.4893   0.0512   1.0000

 Enter alpha(s) of points to be removed:  
.OPERva   c>  
 Polar accumulation disabled

.OPERv   c>  
        airfoil                    Re           Mach       Ncrit  XtripT  XtripB     file
       ------------------------  ------------  ----------  -----  ------  ------    -------------------
    1  ARA-D 10% AIRFOIL         3.611e5       0.059        9.00   1.000   1.000    xfoil.polar

Enter polar output filename [xfoil.polar]   s>  
 Output file exists.  Overwrite?  Y

.OPERv   c>   Q    command not recognized.  Type a "?" for list

.OPERv   c>  