  
       XFOIL         Version 6.99
  
 Calculated polar for: ARA-D 10% AIRFOIL                               
  
 1 1 Reynolds number fixed          Mach number fixed         
  
 xtrf =   1.000 (top)        1.000 (bottom)  
 Mach =   0.059     Re =     0.361 e 6     Ncrit =   9.000
  
   alpha    CL        CD       CDp       CM      Cpmin   Top_Xtr  Bot_Xtr
  ------ -------- --------- --------- -------- -------- -------- --------
  -4.000   0.0035   0.01283   0.00631  -0.0890  -2.5291   0.9618   0.0557
  -3.750   0.0347   0.01261   0.00607  -0.0894  -2.3534   0.9536   0.0612
  -3.500   0.0634   0.01232   0.00582  -0.0892  -2.1842   0.9436   0.0668
  -3.250   0.0908   0.01207   0.00556  -0.0887  -2.0302   0.9329   0.0730
  -3.000   0.1178   0.01197   0.00540  -0.0880  -1.8808   0.9214   0.0790
  -2.750   0.1446   0.01169   0.00516  -0.0873  -1.7266   0.9103   0.0857
  -2.500   0.1714   0.01144   0.00491  -0.0867  -1.5803   0.8978   0.0929
  -2.250   0.1982   0.01131   0.00473  -0.0859  -1.4433   0.8837   0.1008
  -2.000   0.2249   0.01111   0.00453  -0.0852  -1.3048   0.8655   0.1104
  -1.750   0.2517   0.01093   0.00432  -0.0845  -1.1648   0.8462   0.1205
  -1.500   0.2793   0.01079   0.00415  -0.0840  -1.0312   0.8288   0.1318
  -1.250   0.3073   0.01069   0.00400  -0.0837  -0.9118   0.8124   0.1438
  -1.000   0.3355   0.01061   0.00388  -0.0834  -0.7950   0.7949   0.1568
  -0.750   0.3639   0.01053   0.00378  -0.0832  -0.7015   0.7777   0.1708
  -0.500   0.3924   0.01045   0.00369  -0.0831  -0.7395   0.7608   0.1868
  -0.250   0.4210   0.01037   0.00362  -0.0830  -0.7782   0.7439   0.2061
   0.000   0.4495   0.01029   0.00356  -0.0829  -0.8198   0.7263   0.2316
   0.250   0.4781   0.01014   0.00351  -0.0830  -0.8621   0.7094   0.2798
   0.750   0.5262   0.00821   0.00331  -0.0808  -0.9417   0.6741   1.0000
   1.000   0.5548   0.00835   0.00331  -0.0807  -0.9873   0.6550   1.0000
   1.500   0.6116   0.00867   0.00334  -0.0805  -1.0814   0.6143   1.0000
   1.750   0.6399   0.00885   0.00338  -0.0804  -1.1306   0.5921   1.0000
   2.000   0.6681   0.00904   0.00344  -0.0803  -1.1814   0.5682   1.0000
   2.250   0.6961   0.00926   0.00351  -0.0802  -1.2347   0.5423   1.0000
   2.500   0.7239   0.00950   0.00360  -0.0801  -1.2877   0.5135   1.0000
   2.750   0.7514   0.00978   0.00371  -0.0799  -1.3440   0.4810   1.0000
   3.000   0.7785   0.01013   0.00385  -0.0798  -1.4026   0.4449   1.0000
   3.250   0.8054   0.01052   0.00403  -0.0796  -1.4580   0.4041   1.0000
   3.500   0.8320   0.01096   0.00424  -0.0794  -1.5166   0.3630   1.0000
   3.750   0.8584   0.01144   0.00449  -0.0792  -1.5801   0.3271   1.0000
   4.000   0.8849   0.01189   0.00476  -0.0791  -1.6402   0.2999   1.0000
   4.250   0.9116   0.01229   0.00503  -0.0789  -1.7043   0.2785   1.0000
   4.500   0.9383   0.01269   0.00532  -0.0788  -1.7692   0.2619   1.0000
   4.750   0.9651   0.01307   0.00561  -0.0786  -1.8364   0.2484   1.0000
   5.000   0.9918   0.01343   0.00590  -0.0785  -1.9085   0.2367   1.0000
   5.250   1.0183   0.01380   0.00622  -0.0783  -1.9779   0.2270   1.0000
   5.500   1.0446   0.01419   0.00653  -0.0781  -2.0484   0.2179   1.0000
   5.750   1.0713   0.01451   0.00684  -0.0779  -2.1269   0.2101   1.0000
   6.000   1.0968   0.01496   0.00721  -0.0776  -2.2038   0.2024   1.0000
   6.250   1.1236   0.01524   0.00753  -0.0774  -2.2845   0.1959   1.0000
   6.500   1.1486   0.01572   0.00792  -0.0770  -2.3637   0.1895   1.0000
   6.750   1.1751   0.01600   0.00826  -0.0768  -2.4519   0.1835   1.0000
   7.000   1.2001   0.01643   0.00865  -0.0764  -2.5362   0.1778   1.0000
   7.250   1.2254   0.01683   0.00907  -0.0760  -2.6249   0.1725   1.0000
   7.500   1.2507   0.01720   0.00945  -0.0756  -2.7172   0.1671   1.0000
   7.750   1.2743   0.01775   0.00995  -0.0750  -2.8034   0.1620   1.0000
   8.000   1.2996   0.01806   0.01034  -0.0747  -2.9005   0.1572   1.0000
   8.250   1.3234   0.01852   0.01078  -0.0741  -2.9991   0.1525   1.0000
   8.500   1.3467   0.01904   0.01131  -0.0735  -3.0959   0.1480   1.0000
   8.750   1.3709   0.01941   0.01175  -0.0729  -3.2054   0.1436   1.0000
   9.000   1.3930   0.01997   0.01227  -0.0721  -3.3087   0.1393   1.0000
   9.250   1.4156   0.02048   0.01284  -0.0714  -3.4221   0.1353   1.0000
   9.500   1.4384   0.02090   0.01332  -0.0706  -3.5324   0.1313   1.0000
   9.750   1.4588   0.02151   0.01390  -0.0696  -3.6488   0.1275   1.0000
  10.000   1.4796   0.02209   0.01455  -0.0686  -3.7571   0.1239   1.0000
  10.250   1.5006   0.02255   0.01510  -0.0676  -3.8735   0.1203   1.0000
  10.500   1.5194   0.02316   0.01570  -0.0664  -3.9888   0.1169   1.0000
  10.750   1.5367   0.02392   0.01649  -0.0649  -4.1007   0.1136   1.0000
  11.000   1.5555   0.02444   0.01712  -0.0636  -4.2169   0.1104   1.0000
  11.250   1.5723   0.02505   0.01777  -0.0620  -4.3317   0.1073   1.0000
  11.500   1.5840   0.02606   0.01875  -0.0598  -4.4317   0.1043   1.0000
  11.750   1.5977   0.02668   0.01951  -0.0577  -4.5364   0.1019   1.0000
  12.000   1.6101   0.02743   0.02035  -0.0555  -4.6412   0.0992   1.0000
  12.250   1.6210   0.02831   0.02129  -0.0533  -4.7412   0.0968   1.0000
  12.500   1.6282   0.02964   0.02259  -0.0509  -4.8334   0.0943   1.0000
  12.750   1.6403   0.03056   0.02367  -0.0491  -4.9401   0.0921   1.0000
  13.000   1.6512   0.03160   0.02483  -0.0474  -5.0443   0.0897   1.0000
  13.250   1.6606   0.03279   0.02608  -0.0457  -5.1459   0.0875   1.0000
  13.500   1.6667   0.03435   0.02765  -0.0438  -5.2356   0.0854   1.0000
  13.750   1.6741   0.03587   0.02929  -0.0422  -5.3698   0.0836   1.0000
  14.000   1.6822   0.03735   0.03091  -0.0408  -5.5242   0.0816   1.0000
  14.250   1.6891   0.03897   0.03263  -0.0395  -5.6736   0.0796   1.0000
  14.500   1.6943   0.04080   0.03452  -0.0383  -5.8210   0.0779   1.0000
  14.750   1.6956   0.04308   0.03679  -0.0369  -5.9451   0.0760   1.0000
  15.000   1.7000   0.04515   0.03906  -0.0361  -6.0826   0.0745   1.0000
  15.250   1.7034   0.04740   0.04145  -0.0354  -6.2163   0.0728   1.0000
  15.500   1.7057   0.04981   0.04398  -0.0349  -6.3463   0.0712   1.0000
  15.750   1.7066   0.05243   0.04667  -0.0346  -6.4752   0.0697   1.0000
  16.000   1.7045   0.05537   0.04962  -0.0341  -6.5790   0.0681   1.0000
  16.250   1.7024   0.05853   0.05294  -0.0340  -6.6854   0.0668   1.0000
  16.500   1.7000   0.06188   0.05647  -0.0343  -6.7917   0.0654   1.0000
  16.750   1.6969   0.06539   0.06012  -0.0349  -6.9041   0.0640   1.0000
  17.000   1.6932   0.06907   0.06390  -0.0356  -6.9946   0.0627   1.0000
  17.250   1.6881   0.07300   0.06790  -0.0364  -7.0798   0.0615   1.0000
  17.500   1.6826   0.07674   0.07164  -0.0367  -7.1714   0.0602   1.0000
  17.750   1.6739   0.08157   0.07667  -0.0383  -7.2416   0.0594   1.0000
  18.000   1.6645   0.08649   0.08178  -0.0400  -7.2940   0.0585   1.0000
  18.250   1.6547   0.09163   0.08707  -0.0419  -7.3387   0.0574   1.0000
  18.500   1.6451   0.09675   0.09233  -0.0438  -7.3743   0.0565   1.0000
  18.750   1.6356   0.10199   0.09766  -0.0461  -7.4204   0.0555   1.0000
  19.000   1.6270   0.10703   0.10278  -0.0482  -7.4856   0.0545   1.0000
  19.250   1.6230   0.11082   0.10654  -0.0493  -7.5635   0.0534   1.0000
  19.500   1.6063   0.11766   0.11359  -0.0528  -7.5539   0.0527   1.0000
  19.750   1.5900   0.12457   0.12068  -0.0564  -7.5117   0.0520   1.0000
  20.000   1.5746   0.13135   0.12762  -0.0601  -7.4893   0.0512   1.0000
